<?xml version="1.0" encoding="UTF-8"?>

<!-- generated on 2023-02-19 19:04:18.588108 by osmWebWizard.py v1_15_0+0002-e6790248698
<configuration>
    <end value="3600"/>
    <fringe-factor value="2"/>
    <fringe-start-attributes value="departSpeed=&quot;max&quot;"/>
    <insertion-density value="6.0"/>
    <max-distance value="8000.0"/>
    <net-file value="C:\Users\gueye\Sumo\2023-02-19-18-57-45\osm.net.xml.gz"/>
    <remove-loops value="True"/>
    <route-file value="C:\Users\gueye\Sumo\2023-02-19-18-57-45\osm.bicycle.rou.xml"/>
    <trip-attributes value="departLane=&quot;best&quot;"/>
    <output-trip-file value="C:\Users\gueye\Sumo\2023-02-19-18-57-45\osm.bicycle.trips.xml"/>
    <prefix value="bike"/>
    <validate value="True"/>
    <vclass value="bicycle"/>
    <vehicle-class value="bicycle"/>
</configuration>
-->

<!-- generated on 2023-02-19 19:03:53 by Eclipse SUMO duarouter Version 1.15.0
<configuration xmlns:xsi="http://www.w3.org/2001/XMLSchema-instance" xsi:noNamespaceSchemaLocation="http://sumo.dlr.de/xsd/duarouterConfiguration.xsd">

    <input>
        <net-file value="C:\Users\gueye\Sumo\2023-02-19-18-57-45\osm.net.xml.gz"/>
        <route-files value="C:\Users\gueye\Sumo\2023-02-19-18-57-45\osm.bicycle.trips.xml"/>
    </input>

    <output>
        <output-file value="C:\Users\gueye\Sumo\2023-02-19-18-57-45\osm.bicycle.trips.xml.tmp"/>
        <alternatives-output value="NUL"/>
        <write-trips value="true"/>
    </output>

    <processing>
        <remove-loops value="true"/>
    </processing>

    <time>
        <begin value="0"/>
        <end value="3600"/>
    </time>

    <report>
        <no-warnings value="true"/>
        <ignore-errors value="true"/>
        <no-step-log value="true"/>
    </report>

</configuration>
-->

<routes xmlns:xsi="http://www.w3.org/2001/XMLSchema-instance" xsi:noNamespaceSchemaLocation="http://sumo.dlr.de/xsd/routes_file.xsd">
    <vType id="bike_bicycle" vClass="bicycle"/>
    <trip id="bike0" type="bike_bicycle" depart="0.00" departLane="best" from="243182901#2" to="1090593963#1"/>
    <trip id="bike1" type="bike_bicycle" depart="0.73" departLane="best" from="629175726#3" to="-4995409#3"/>
    <trip id="bike2" type="bike_bicycle" depart="1.47" departLane="best" from="-1121866928#0" to="43633674#1"/>
    <trip id="bike3" type="bike_bicycle" depart="2.20" departLane="best" from="76281476#2" to="-17366367#0"/>
    <trip id="bike4" type="bike_bicycle" depart="2.94" departLane="best" from="-88222121#0" to="-1112308896#1"/>
    <trip id="bike5" type="bike_bicycle" depart="3.67" departLane="best" from="4995409#1" to="151352687#1"/>
    <trip id="bike6" type="bike_bicycle" depart="4.41" departLane="best" from="-111596341#2" to="42712162#5"/>
    <trip id="bike7" type="bike_bicycle" depart="5.14" departLane="best" from="263475701#2" to="191628560#14"/>
    <trip id="bike8" type="bike_bicycle" depart="5.88" departLane="best" from="-5002686#0" to="21812215#2"/>
    <trip id="bike9" type="bike_bicycle" depart="6.61" departLane="best" from="660949185#0" to="-102870437"/>
    <trip id="bike10" type="bike_bicycle" depart="7.35" departLane="best" from="660909458#0" to="48466947#13"/>
    <trip id="bike11" type="bike_bicycle" depart="8.08" departLane="best" from="-74505105#0" to="-74505105#0"/>
    <trip id="bike12" type="bike_bicycle" depart="8.82" departLane="best" from="866218762#0" to="-74505110#2"/>
    <trip id="bike13" type="bike_bicycle" depart="9.55" departLane="best" from="191741590#1" to="-191171275#7"/>
    <trip id="bike14" type="bike_bicycle" depart="10.28" departLane="best" from="-72713072#9" to="22762539#2"/>
    <trip id="bike15" type="bike_bicycle" depart="11.02" departLane="best" from="660913405#2" to="43633667#0"/>
    <trip id="bike16" type="bike_bicycle" depart="11.75" departLane="best" departSpeed="max" from="163080953" to="884901164#0"/>
    <trip id="bike17" type="bike_bicycle" depart="12.49" departLane="best" from="-81526966" to="197335661#1"/>
    <trip id="bike18" type="bike_bicycle" depart="13.22" departLane="best" from="-71205596#4" to="238843934"/>
    <trip id="bike19" type="bike_bicycle" depart="13.96" departLane="best" from="74202467#0" to="20608183#6"/>
    <trip id="bike20" type="bike_bicycle" depart="14.69" departLane="best" from="47705629#2" to="-114017878#7"/>
    <trip id="bike21" type="bike_bicycle" depart="15.43" departLane="best" from="-532385078" to="-532385078"/>
    <trip id="bike22" type="bike_bicycle" depart="16.16" departLane="best" from="-178348880" to="532959624#1"/>
    <trip id="bike23" type="bike_bicycle" depart="16.90" departLane="best" from="-199291608#1" to="646493154#3"/>
    <trip id="bike24" type="bike_bicycle" depart="17.63" departLane="best" from="243133902#3" to="802430111#0"/>
    <trip id="bike25" type="bike_bicycle" depart="18.37" departLane="best" from="80497983#0" to="-47707315#10"/>
    <trip id="bike26" type="bike_bicycle" depart="19.10" departLane="best" departSpeed="max" from="-575292709" to="82640609#3"/>
    <trip id="bike27" type="bike_bicycle" depart="19.83" departLane="best" from="262441502#2" to="22895533#2"/>
    <trip id="bike28" type="bike_bicycle" depart="20.57" departLane="best" from="303998934#2" to="533535136#1"/>
    <trip id="bike29" type="bike_bicycle" depart="21.30" departLane="best" from="265600491#5" to="-81535472"/>
    <trip id="bike30" type="bike_bicycle" depart="22.04" departLane="best" from="935336517#0" to="265600490#1"/>
    <trip id="bike31" type="bike_bicycle" depart="22.77" departLane="best" from="190857631#6" to="47008152#4"/>
    <trip id="bike32" type="bike_bicycle" depart="23.51" departLane="best" from="72051040#1" to="622632051#3"/>
    <trip id="bike33" type="bike_bicycle" depart="24.24" departLane="best" from="533150150#1" to="1121866929#1"/>
    <trip id="bike34" type="bike_bicycle" depart="24.98" departLane="best" from="72713036#2" to="-622787789#0"/>
    <trip id="bike35" type="bike_bicycle" depart="25.71" departLane="best" from="-48466947#24" to="838226009#1"/>
    <trip id="bike36" type="bike_bicycle" depart="26.45" departLane="best" from="-74523668#0" to="-72713075#0"/>
    <trip id="bike37" type="bike_bicycle" depart="27.18" departLane="best" from="265590375#4" to="82677684#1"/>
    <trip id="bike38" type="bike_bicycle" depart="27.92" departLane="best" departSpeed="max" from="80582862" to="1096045148"/>
    <trip id="bike39" type="bike_bicycle" depart="28.65" departLane="best" from="-56181610#3" to="541164734#0"/>
    <trip id="bike40" type="bike_bicycle" depart="29.38" departLane="best" from="191172830#1" to="-542888743"/>
    <trip id="bike41" type="bike_bicycle" depart="30.12" departLane="best" from="-738906164#4" to="79630613#0"/>
    <trip id="bike42" type="bike_bicycle" depart="30.85" departLane="best" departSpeed="max" from="-82717241" to="-48566360#4"/>
    <trip id="bike43" type="bike_bicycle" depart="31.59" departLane="best" from="96876147#2" to="161650650"/>
    <trip id="bike44" type="bike_bicycle" depart="32.32" departLane="best" from="-191172487#1" to="-114192128#2"/>
    <trip id="bike45" type="bike_bicycle" depart="33.06" departLane="best" from="-202291587#19" to="24586922#0"/>
    <trip id="bike47" type="bike_bicycle" depart="34.53" departLane="best" from="-161650652#2" to="-81580746#2"/>
    <trip id="bike48" type="bike_bicycle" depart="35.26" departLane="best" from="178348838#1" to="178348838#1"/>
    <trip id="bike49" type="bike_bicycle" depart="36.00" departLane="best" departSpeed="max" from="88114118#0" to="-74212357#1"/>
    <trip id="bike50" type="bike_bicycle" depart="36.73" departLane="best" from="518877406" to="518877406"/>
    <trip id="bike51" type="bike_bicycle" depart="37.47" departLane="best" from="400810156#0" to="190857278#10"/>
    <trip id="bike52" type="bike_bicycle" depart="38.20" departLane="best" from="575288084#4" to="265803949#1"/>
    <trip id="bike53" type="bike_bicycle" depart="38.93" departLane="best" departSpeed="max" from="-202680716#1" to="994884921#2"/>
    <trip id="bike54" type="bike_bicycle" depart="39.67" departLane="best" from="860358662" to="860358662"/>
    <trip id="bike55" type="bike_bicycle" depart="40.40" departLane="best" from="74508909#2" to="-56181610#1"/>
    <trip id="bike56" type="bike_bicycle" depart="41.14" departLane="best" from="-114198223#0" to="303878312#1"/>
    <trip id="bike57" type="bike_bicycle" depart="41.87" departLane="best" from="80352299" to="-74505111#0"/>
    <trip id="bike58" type="bike_bicycle" depart="42.61" departLane="best" departSpeed="max" from="-70794719" to="265590375#4"/>
    <trip id="bike59" type="bike_bicycle" depart="43.34" departLane="best" from="219453108#2" to="-23115878#1"/>
    <trip id="bike60" type="bike_bicycle" depart="44.08" departLane="best" departSpeed="max" from="191171267#1" to="191171267#1"/>
    <trip id="bike61" type="bike_bicycle" depart="44.81" departLane="best" from="599056122#0" to="178946254#2"/>
    <trip id="bike62" type="bike_bicycle" depart="45.55" departLane="best" from="-100035153#5" to="73913540#1"/>
    <trip id="bike63" type="bike_bicycle" depart="46.28" departLane="best" departSpeed="max" from="-108238001" to="-108238001"/>
    <trip id="bike64" type="bike_bicycle" depart="47.02" departLane="best" from="74874371#2" to="71898259#6"/>
    <trip id="bike65" type="bike_bicycle" depart="47.75" departLane="best" departSpeed="max" from="-71591633#2" to="-132227039#1"/>
    <trip id="bike66" type="bike_bicycle" depart="48.48" departLane="best" from="74525639#1" to="845057534#0"/>
    <trip id="bike67" type="bike_bicycle" depart="49.22" departLane="best" from="-191170303#1" to="114199395#1"/>
    <trip id="bike68" type="bike_bicycle" depart="49.95" departLane="best" from="-16361944#2" to="542312864#1"/>
    <trip id="bike69" type="bike_bicycle" depart="50.69" departLane="best" from="542230446#2" to="-207348735#1"/>
    <trip id="bike71" type="bike_bicycle" depart="52.16" departLane="best" from="-56181610#5" to="74523668#4"/>
    <trip id="bike72" type="bike_bicycle" depart="52.89" departLane="best" from="-890069253" to="-477905606#7"/>
    <trip id="bike73" type="bike_bicycle" depart="53.63" departLane="best" from="16361962#0" to="-533754591#3"/>
    <trip id="bike74" type="bike_bicycle" depart="54.36" departLane="best" departSpeed="max" from="-476738390" to="-72713030#0"/>
    <trip id="bike75" type="bike_bicycle" depart="55.10" departLane="best" departSpeed="max" from="306034414#1" to="306034414#1"/>
    <trip id="bike76" type="bike_bicycle" depart="55.83" departLane="best" departSpeed="max" from="-96876135#1" to="16361944#4"/>
    <trip id="bike77" type="bike_bicycle" depart="56.57" departLane="best" from="660495318#3" to="-5002662#2"/>
    <trip id="bike78" type="bike_bicycle" depart="57.30" departLane="best" from="74310485#11" to="-212468507#0"/>
    <trip id="bike79" type="bike_bicycle" depart="58.03" departLane="best" from="-533330705" to="-48566418#1"/>
    <trip id="bike80" type="bike_bicycle" depart="58.77" departLane="best" from="16361959#1" to="25441289#5"/>
    <trip id="bike81" type="bike_bicycle" depart="59.50" departLane="best" from="1121866927#1" to="-802554897#3"/>
    <trip id="bike82" type="bike_bicycle" depart="60.24" departLane="best" from="-72051157" to="151568360"/>
    <trip id="bike83" type="bike_bicycle" depart="60.97" departLane="best" from="538617335#1" to="41598125#0"/>
    <trip id="bike84" type="bike_bicycle" depart="61.71" departLane="best" from="-48566273" to="-21812289#1"/>
    <trip id="bike85" type="bike_bicycle" depart="62.44" departLane="best" from="202291587#27" to="202291587#27"/>
    <trip id="bike86" type="bike_bicycle" depart="63.18" departLane="best" from="1099611752#4" to="629215113#0"/>
    <trip id="bike87" type="bike_bicycle" depart="63.91" departLane="best" departSpeed="max" from="660913414" to="-371796472#4"/>
    <trip id="bike88" type="bike_bicycle" depart="64.65" departLane="best" from="-197335668#0" to="-197335668#0"/>
    <trip id="bike89" type="bike_bicycle" depart="65.38" departLane="best" from="-892385826#2" to="111596597"/>
    <trip id="bike90" type="bike_bicycle" depart="66.12" departLane="best" from="50655178#5" to="-41601209#7"/>
    <trip id="bike91" type="bike_bicycle" depart="66.85" departLane="best" from="926663640" to="191171901#4"/>
    <trip id="bike92" type="bike_bicycle" depart="67.58" departLane="best" from="-839690129#0" to="-74525225#0"/>
    <trip id="bike93" type="bike_bicycle" depart="68.32" departLane="best" from="74202461#4" to="74202461#4"/>
    <trip id="bike94" type="bike_bicycle" depart="69.05" departLane="best" from="-41601199#9" to="103800965#1"/>
    <trip id="bike95" type="bike_bicycle" depart="69.79" departLane="best" departSpeed="max" from="-88115177" to="-655036702"/>
    <trip id="bike96" type="bike_bicycle" depart="70.52" departLane="best" departSpeed="max" from="81578499#3" to="81578499#3"/>
    <trip id="bike97" type="bike_bicycle" depart="71.26" departLane="best" from="1014904299#1" to="74212367#0"/>
    <trip id="bike98" type="bike_bicycle" depart="71.99" departLane="best" from="-180664522" to="114199328"/>
    <trip id="bike99" type="bike_bicycle" depart="72.73" departLane="best" from="994884919#1" to="71966041#10"/>
    <trip id="bike100" type="bike_bicycle" depart="73.46" departLane="best" from="879217667#0" to="81637798"/>
    <trip id="bike101" type="bike_bicycle" depart="74.20" departLane="best" from="72714612#0" to="-263475697#9"/>
    <trip id="bike102" type="bike_bicycle" depart="74.93" departLane="best" departSpeed="max" from="113140570" to="48466173#4"/>
    <trip id="bike103" type="bike_bicycle" depart="75.66" departLane="best" departSpeed="max" from="-838226009#1" to="-132332761"/>
    <trip id="bike104" type="bike_bicycle" depart="76.40" departLane="best" from="-81527034#3" to="929290505#7"/>
    <trip id="bike105" type="bike_bicycle" depart="77.13" departLane="best" departSpeed="max" from="-56181610#6" to="629177224#9"/>
    <trip id="bike106" type="bike_bicycle" depart="77.87" departLane="best" departSpeed="max" from="1033638144" to="935095217#3"/>
    <trip id="bike107" type="bike_bicycle" depart="78.60" departLane="best" from="866218762#1" to="866218762#1"/>
    <trip id="bike108" type="bike_bicycle" depart="79.34" departLane="best" from="190857278#14" to="50655186"/>
    <trip id="bike109" type="bike_bicycle" depart="80.07" departLane="best" from="-24655031#4" to="-70794473"/>
    <trip id="bike110" type="bike_bicycle" depart="80.81" departLane="best" from="-878883006#3" to="20611645#1"/>
    <trip id="bike111" type="bike_bicycle" depart="81.54" departLane="best" from="-696987745" to="-541172823"/>
    <trip id="bike112" type="bike_bicycle" depart="82.28" departLane="best" from="-150180762#2" to="20615462#0"/>
    <trip id="bike113" type="bike_bicycle" depart="83.01" departLane="best" departSpeed="max" from="114199850" to="738917898#2"/>
    <trip id="bike114" type="bike_bicycle" depart="83.75" departLane="best" from="-262192013#0" to="876203133#1"/>
    <trip id="bike115" type="bike_bicycle" depart="84.48" departLane="best" from="-178348883#3" to="-339143851#2"/>
    <trip id="bike116" type="bike_bicycle" depart="85.21" departLane="best" from="20611645#1" to="43517457#1"/>
    <trip id="bike117" type="bike_bicycle" depart="85.95" departLane="best" from="-538063665#1" to="20606823"/>
    <trip id="bike118" type="bike_bicycle" depart="86.68" departLane="best" from="76276824#0" to="-540808700#5"/>
    <trip id="bike119" type="bike_bicycle" depart="87.42" departLane="best" from="-20611642#0" to="243051020"/>
    <trip id="bike120" type="bike_bicycle" depart="88.15" departLane="best" from="-878883006#4" to="-20614983#3"/>
    <trip id="bike121" type="bike_bicycle" depart="88.89" departLane="best" from="151352683#1" to="82629217#0"/>
    <trip id="bike122" type="bike_bicycle" depart="89.62" departLane="best" from="-47705685" to="-47705685"/>
    <trip id="bike123" type="bike_bicycle" depart="90.36" departLane="best" from="-538779341" to="-82679004"/>
    <trip id="bike124" type="bike_bicycle" depart="91.09" departLane="best" from="32067753#1" to="-70935303#1"/>
    <trip id="bike125" type="bike_bicycle" depart="91.83" departLane="best" from="-72713042#1" to="-72713042#1"/>
    <trip id="bike126" type="bike_bicycle" depart="92.56" departLane="best" departSpeed="max" from="-171222376#2" to="1096043387"/>
    <trip id="bike127" type="bike_bicycle" depart="93.30" departLane="best" from="987933714" to="987933714"/>
    <trip id="bike128" type="bike_bicycle" depart="94.03" departLane="best" departSpeed="max" from="-171222379#7" to="-48290279"/>
    <trip id="bike129" type="bike_bicycle" depart="94.76" departLane="best" departSpeed="max" from="-56181610#6" to="-56181610#6"/>
    <trip id="bike130" type="bike_bicycle" depart="95.50" departLane="best" from="-660905301#5" to="74948646#1"/>
    <trip id="bike131" type="bike_bicycle" depart="96.23" departLane="best" departSpeed="max" from="-802889105" to="243167818#1"/>
    <trip id="bike132" type="bike_bicycle" depart="96.97" departLane="best" from="71809965#5" to="-48566360#8"/>
    <trip id="bike133" type="bike_bicycle" depart="97.70" departLane="best" from="-22056977#9" to="931707021#0"/>
    <trip id="bike134" type="bike_bicycle" depart="98.44" departLane="best" from="265397455" to="-103059083#1"/>
    <trip id="bike135" type="bike_bicycle" depart="99.17" departLane="best" from="70410368#3" to="-70935299#0"/>
    <trip id="bike136" type="bike_bicycle" depart="99.91" departLane="best" from="295063043#4" to="82677674"/>
    <trip id="bike137" type="bike_bicycle" depart="100.64" departLane="best" from="-22338490#1" to="-201765474"/>
    <trip id="bike138" type="bike_bicycle" depart="101.38" departLane="best" from="201765475#1" to="197335672#10"/>
    <trip id="bike139" type="bike_bicycle" depart="102.11" departLane="best" from="628220615#2" to="22762630#2"/>
    <trip id="bike140" type="bike_bicycle" depart="102.85" departLane="best" from="48566423#0" to="47006341#1"/>
    <trip id="bike141" type="bike_bicycle" depart="103.58" departLane="best" from="243051321" to="-575249792"/>
    <trip id="bike142" type="bike_bicycle" depart="104.31" departLane="best" from="-113586686#0" to="-802554897#2"/>
    <trip id="bike143" type="bike_bicycle" depart="105.05" departLane="best" from="72713045#1" to="186257198#0"/>
    <trip id="bike144" type="bike_bicycle" depart="105.78" departLane="best" from="-892385826#2" to="634642322#3"/>
    <trip id="bike145" type="bike_bicycle" depart="106.52" departLane="best" departSpeed="max" from="-101817279#3" to="575278893"/>
    <trip id="bike146" type="bike_bicycle" depart="107.25" departLane="best" from="243167819#2" to="542888742#10"/>
    <trip id="bike147" type="bike_bicycle" depart="107.99" departLane="best" from="533755196#1" to="-197335659#2"/>
    <trip id="bike148" type="bike_bicycle" depart="108.72" departLane="best" from="-1031689106" to="-1031689106"/>
    <trip id="bike149" type="bike_bicycle" depart="109.46" departLane="best" from="-173608503" to="75901677#9"/>
    <trip id="bike150" type="bike_bicycle" depart="110.19" departLane="best" from="-79630613#0" to="191628561#2"/>
    <trip id="bike151" type="bike_bicycle" depart="110.93" departLane="best" from="71851235#1" to="20614586#11"/>
    <trip id="bike152" type="bike_bicycle" depart="111.66" departLane="best" departSpeed="max" from="-238843934" to="-20618819#4"/>
    <trip id="bike153" type="bike_bicycle" depart="112.40" departLane="best" from="-71600023#0" to="80201116#0"/>
    <trip id="bike154" type="bike_bicycle" depart="113.13" departLane="best" from="-646488028#5" to="-74212357#0"/>
    <trip id="bike155" type="bike_bicycle" depart="113.86" departLane="best" from="78725084#0" to="47707315#2"/>
    <trip id="bike156" type="bike_bicycle" depart="114.60" departLane="best" departSpeed="max" from="-196637993#0" to="-196637993#0"/>
    <trip id="bike157" type="bike_bicycle" depart="115.33" departLane="best" from="60644115#2" to="-75902568"/>
    <trip id="bike158" type="bike_bicycle" depart="116.07" departLane="best" from="1112305983" to="-243133902#17"/>
    <trip id="bike160" type="bike_bicycle" depart="117.54" departLane="best" from="74212356#12" to="74212356#12"/>
    <trip id="bike161" type="bike_bicycle" depart="118.27" departLane="best" from="-660962756#1" to="75484095#1"/>
    <trip id="bike162" type="bike_bicycle" depart="119.01" departLane="best" from="-1102350586#2" to="538582739"/>
    <trip id="bike163" type="bike_bicycle" depart="119.74" departLane="best" from="-74212356#6" to="-74212356#6"/>
    <trip id="bike164" type="bike_bicycle" depart="120.48" departLane="best" departSpeed="max" from="660671403" to="74212961"/>
    <trip id="bike165" type="bike_bicycle" depart="121.21" departLane="best" from="-660962756#1" to="-622632051#4"/>
    <trip id="bike166" type="bike_bicycle" depart="121.95" departLane="best" from="629100242#1" to="-19795421#5"/>
    <trip id="bike167" type="bike_bicycle" depart="122.68" departLane="best" from="74310485#11" to="74203921#3"/>
    <trip id="bike168" type="bike_bicycle" depart="123.41" departLane="best" from="5008846#5" to="-70881099#10"/>
    <trip id="bike169" type="bike_bicycle" depart="124.15" departLane="best" departSpeed="max" from="103998084" to="71591635"/>
    <trip id="bike171" type="bike_bicycle" depart="125.62" departLane="best" from="-1099644115#1" to="-400810156#1"/>
    <trip id="bike172" type="bike_bicycle" depart="126.35" departLane="best" departSpeed="max" from="-738934780" to="74220903#1"/>
    <trip id="bike173" type="bike_bicycle" depart="127.09" departLane="best" from="87747202#1" to="660495315#3"/>
    <trip id="bike174" type="bike_bicycle" depart="127.82" departLane="best" from="24586919#2" to="-839711502#1"/>
    <trip id="bike175" type="bike_bicycle" depart="128.56" departLane="best" from="905856180#1" to="190853398"/>
    <trip id="bike176" type="bike_bicycle" depart="129.29" departLane="best" departSpeed="max" from="82317602" to="-201732282"/>
    <trip id="bike177" type="bike_bicycle" depart="130.03" departLane="best" from="880704275" to="-303878312#0"/>
    <trip id="bike178" type="bike_bicycle" depart="130.76" departLane="best" from="876088086#0" to="-60900285"/>
    <trip id="bike179" type="bike_bicycle" depart="131.50" departLane="best" departSpeed="max" from="-202169800" to="-1014904297#0"/>
    <trip id="bike180" type="bike_bicycle" depart="132.23" departLane="best" from="50655177#3" to="72713072#11"/>
    <trip id="bike181" type="bike_bicycle" depart="132.96" departLane="best" from="21812267#2" to="16286768"/>
    <trip id="bike182" type="bike_bicycle" depart="133.70" departLane="best" from="-81637797#0" to="20608179#1"/>
    <trip id="bike183" type="bike_bicycle" depart="134.43" departLane="best" from="-542234215#0" to="4995526#2"/>
    <trip id="bike184" type="bike_bicycle" depart="135.17" departLane="best" from="-1014904294#1" to="81637719#0"/>
    <trip id="bike185" type="bike_bicycle" depart="135.90" departLane="best" from="16361953#1" to="518873289#4"/>
    <trip id="bike186" type="bike_bicycle" depart="136.64" departLane="best" from="533829702#2" to="41601197#4"/>
    <trip id="bike187" type="bike_bicycle" depart="137.37" departLane="best" from="80201124#0" to="-151352688#2"/>
    <trip id="bike188" type="bike_bicycle" depart="138.11" departLane="best" from="303657822#2" to="-74212377#2"/>
    <trip id="bike189" type="bike_bicycle" depart="138.84" departLane="best" from="-720182675#3" to="738898246#2"/>
    <trip id="bike190" type="bike_bicycle" depart="139.58" departLane="best" from="49759137#1" to="-70935303#5"/>
    <trip id="bike191" type="bike_bicycle" depart="140.31" departLane="best" departSpeed="max" from="-71890971" to="87689632#0"/>
    <trip id="bike192" type="bike_bicycle" depart="141.05" departLane="best" departSpeed="max" from="-839690128" to="-70794467#4"/>
    <trip id="bike193" type="bike_bicycle" depart="141.78" departLane="best" from="-22056966#8" to="926660676#1"/>
    <trip id="bike194" type="bike_bicycle" depart="142.51" departLane="best" from="82629203" to="438026921#0"/>
    <trip id="bike195" type="bike_bicycle" depart="143.25" departLane="best" from="79629212#1" to="232884226#0"/>
    <trip id="bike196" type="bike_bicycle" depart="143.98" departLane="best" from="-70935297#2" to="191917865#0"/>
    <trip id="bike197" type="bike_bicycle" depart="144.72" departLane="best" from="100035153#3" to="-660949181#1"/>
    <trip id="bike198" type="bike_bicycle" depart="145.45" departLane="best" from="-931707021#0" to="20612535#1"/>
    <trip id="bike199" type="bike_bicycle" depart="146.19" departLane="best" departSpeed="max" from="265590373" to="1112302852"/>
    <trip id="bike200" type="bike_bicycle" depart="146.92" departLane="best" from="1006730649#0" to="-48466173#3"/>
    <trip id="bike201" type="bike_bicycle" depart="147.66" departLane="best" from="1099633668#1" to="80201643#0"/>
    <trip id="bike202" type="bike_bicycle" depart="148.39" departLane="best" from="-646488028#4" to="-265397452#1"/>
    <trip id="bike203" type="bike_bicycle" depart="149.13" departLane="best" from="-190853262" to="16286798#1"/>
    <trip id="bike204" type="bike_bicycle" depart="149.86" departLane="best" from="-238076987#1" to="-74313950#1"/>
    <trip id="bike205" type="bike_bicycle" depart="150.60" departLane="best" from="705236102#0" to="705236102#0"/>
    <trip id="bike206" type="bike_bicycle" depart="151.33" departLane="best" from="-5002662#2" to="-5002662#2"/>
    <trip id="bike207" type="bike_bicycle" depart="152.06" departLane="best" from="-47008155#7" to="-1086613561"/>
    <trip id="bike208" type="bike_bicycle" depart="152.80" departLane="best" from="541176237#0" to="113586346#7"/>
    <trip id="bike209" type="bike_bicycle" depart="153.53" departLane="best" from="73850665#1" to="157367149"/>
    <trip id="bike210" type="bike_bicycle" depart="154.27" departLane="best" from="-87645829#1" to="247829965"/>
    <trip id="bike211" type="bike_bicycle" depart="155.00" departLane="best" from="48347382#0" to="48347382#0"/>
    <trip id="bike212" type="bike_bicycle" depart="155.74" departLane="best" departSpeed="max" from="114015717#0" to="-539258456#7"/>
    <trip id="bike213" type="bike_bicycle" depart="156.47" departLane="best" from="265590376#3" to="-1071979330"/>
    <trip id="bike214" type="bike_bicycle" depart="157.21" departLane="best" from="538768154" to="575253208"/>
    <trip id="bike215" type="bike_bicycle" depart="157.94" departLane="best" from="201732280#4" to="-95023296#4"/>
    <trip id="bike216" type="bike_bicycle" depart="158.68" departLane="best" from="-315159521#1" to="87497586#1"/>
    <trip id="bike217" type="bike_bicycle" depart="159.41" departLane="best" from="14645797#4" to="-114197715"/>
    <trip id="bike218" type="bike_bicycle" depart="160.15" departLane="best" from="738898246#4" to="738898246#4"/>
    <trip id="bike219" type="bike_bicycle" depart="160.88" departLane="best" departSpeed="max" from="103800967" to="660913409#1"/>
    <trip id="bike220" type="bike_bicycle" depart="161.61" departLane="best" departSpeed="max" from="307418710#0" to="935095217#3"/>
    <trip id="bike221" type="bike_bicycle" depart="162.35" departLane="best" from="20612535#0" to="857569279#6"/>
    <trip id="bike223" type="bike_bicycle" depart="163.82" departLane="best" from="49697614#2" to="151352685#0"/>
    <trip id="bike224" type="bike_bicycle" depart="164.55" departLane="best" from="71223027#0" to="71223027#0"/>
    <trip id="bike225" type="bike_bicycle" depart="165.29" departLane="best" from="78363495" to="539264384#1"/>
    <trip id="bike226" type="bike_bicycle" depart="166.02" departLane="best" from="1102350583" to="-542318506#2"/>
    <trip id="bike227" type="bike_bicycle" depart="166.76" departLane="best" departSpeed="max" from="265297558#1" to="265297558#1"/>
    <trip id="bike228" type="bike_bicycle" depart="167.49" departLane="best" from="542230446#2" to="171222376#2"/>
    <trip id="bike229" type="bike_bicycle" depart="168.23" departLane="best" from="-628222787#5" to="629215115"/>
    <trip id="bike230" type="bike_bicycle" depart="168.96" departLane="best" from="-660913409#2" to="-660913409#2"/>
    <trip id="bike231" type="bike_bicycle" depart="169.70" departLane="best" departSpeed="max" from="-623890129" to="738906164#4"/>
    <trip id="bike232" type="bike_bicycle" depart="170.43" departLane="best" from="-171222376#0" to="-22057014#0"/>
    <trip id="bike233" type="bike_bicycle" depart="171.16" departLane="best" from="-533379865#3" to="477905606#14"/>
    <trip id="bike234" type="bike_bicycle" depart="171.90" departLane="best" from="-477905606#13" to="-14645796#3"/>
    <trip id="bike235" type="bike_bicycle" depart="172.63" departLane="best" from="-860129638#0" to="191172140#2"/>
    <trip id="bike236" type="bike_bicycle" depart="173.37" departLane="best" from="87723865" to="-476738387#0"/>
    <trip id="bike237" type="bike_bicycle" depart="174.10" departLane="best" from="-880255678#1" to="802554893#1"/>
    <trip id="bike238" type="bike_bicycle" depart="174.84" departLane="best" from="202153753" to="48290026#1"/>
    <trip id="bike239" type="bike_bicycle" depart="175.57" departLane="best" from="738914075#0" to="542421914"/>
    <trip id="bike240" type="bike_bicycle" depart="176.31" departLane="best" departSpeed="max" from="-81528831#6" to="-1028668081"/>
    <trip id="bike241" type="bike_bicycle" depart="177.04" departLane="best" from="-75988979" to="-75988979"/>
    <trip id="bike242" type="bike_bicycle" depart="177.78" departLane="best" from="-738906169#4" to="860196998#4"/>
    <trip id="bike243" type="bike_bicycle" depart="178.51" departLane="best" from="878883006#2" to="541164735#1"/>
    <trip id="bike244" type="bike_bicycle" depart="179.25" departLane="best" from="17366370#2" to="22762537#5"/>