<?xml version="1.0" encoding="UTF-8"?>

<!-- generated on 2023-02-19 19:04:43.311754 by osmWebWizard.py v1_15_0+0002-e6790248698
<configuration>
    <end value="3600"/>
    <fringe-factor value="2"/>
    <fringe-start-attributes value="departSpeed=&quot;max&quot;"/>
    <insertion-density value="4.0"/>
    <max-distance value="1200.0"/>
    <net-file value="C:\Users\gueye\Sumo\2023-02-19-18-57-45\osm.net.xml.gz"/>
    <remove-loops value="True"/>
    <route-file value="C:\Users\gueye\Sumo\2023-02-19-18-57-45\osm.motorcycle.rou.xml"/>
    <trip-attributes value="departLane=&quot;best&quot;"/>
    <output-trip-file value="C:\Users\gueye\Sumo\2023-02-19-18-57-45\osm.motorcycle.trips.xml"/>
    <prefix value="motorcycle"/>
    <validate value="True"/>
    <vclass value="motorcycle"/>
    <vehicle-class value="motorcycle"/>
</configuration>
-->

<!-- generated on 2023-02-19 19:04:41 by Eclipse SUMO duarouter Version 1.15.0
<configuration xmlns:xsi="http://www.w3.org/2001/XMLSchema-instance" xsi:noNamespaceSchemaLocation="http://sumo.dlr.de/xsd/duarouterConfiguration.xsd">

    <input>
        <net-file value="C:\Users\gueye\Sumo\2023-02-19-18-57-45\osm.net.xml.gz"/>
        <route-files value="C:\Users\gueye\Sumo\2023-02-19-18-57-45\osm.motorcycle.trips.xml"/>
    </input>

    <output>
        <output-file value="C:\Users\gueye\Sumo\2023-02-19-18-57-45\osm.motorcycle.trips.xml.tmp"/>
        <alternatives-output value="NUL"/>
        <write-trips value="true"/>
    </output>

    <processing>
        <remove-loops value="true"/>
    </processing>

    <time>
        <begin value="0"/>
        <end value="3600"/>
    </time>

    <report>
        <no-warnings value="true"/>
        <ignore-errors value="true"/>
        <no-step-log value="true"/>
    </report>

</configuration>
-->

<routes xmlns:xsi="http://www.w3.org/2001/XMLSchema-instance" xsi:noNamespaceSchemaLocation="http://sumo.dlr.de/xsd/routes_file.xsd">
    <vType id="motorcycle_motorcycle" vClass="motorcycle"/>
    <trip id="motorcycle0" type="motorcycle_motorcycle" depart="0.00" departLane="best" from="79623947#1" to="-20611639#6"/>
    <trip id="motorcycle1" type="motorcycle_motorcycle" depart="1.53" departLane="best" from="-5008846#3" to="191628561#5"/>
    <trip id="motorcycle2" type="motorcycle_motorcycle" depart="3.07" departLane="best" from="-14645795#2" to="-477905606#14"/>
    <trip id="motorcycle3" type="motorcycle_motorcycle" depart="4.60" departLane="best" from="-50655178#1" to="22895536#2"/>
    <trip id="motorcycle4" type="motorcycle_motorcycle" depart="6.14" departLane="best" from="-71082577#0" to="-1033555988#1"/>
    <trip id="motorcycle5" type="motorcycle_motorcycle" depart="7.67" departLane="best" from="199901193#0" to="-538773530#0"/>
    <trip id="motorcycle6" type="motorcycle_motorcycle" depart="9.21" departLane="best" from="-21812267#0" to="70935309"/>
    <trip id="motorcycle7" type="motorcycle_motorcycle" depart="10.74" departLane="best" from="-70794471" to="-70794471"/>
    <trip id="motorcycle8" type="motorcycle_motorcycle" depart="12.28" departLane="best" from="-402180080#1" to="533327242#3"/>
    <trip id="motorcycle9" type="motorcycle_motorcycle" depart="13.81" departLane="best" from="-74502288#2" to="70794464"/>
    <trip id="motorcycle10" type="motorcycle_motorcycle" depart="15.35" departLane="best" from="-48566478#0" to="82629203"/>
    <trip id="motorcycle11" type="motorcycle_motorcycle" depart="16.88" departLane="best" from="70794467#0" to="-621463438#4"/>
    <trip id="motorcycle12" type="motorcycle_motorcycle" depart="18.42" departLane="best" from="47705548#1" to="20608183#4"/>
    <trip id="motorcycle13" type="motorcycle_motorcycle" depart="19.95" departLane="best" from="-191171868#0" to="-41601194#3"/>
    <trip id="motorcycle14" type="motorcycle_motorcycle" depart="21.48" departLane="best" from="243167822#6" to="263476550#1"/>
    <trip id="motorcycle15" type="motorcycle_motorcycle" depart="23.02" departLane="best" from="-114194005#8" to="81580753#0"/>
    <trip id="motorcycle16" type="motorcycle_motorcycle" depart="24.55" departLane="best" from="16286803#4" to="20618819#2"/>
    <trip id="motorcycle17" type="motorcycle_motorcycle" depart="26.09" departLane="best" from="-94401737#1" to="400810156#1"/>
    <trip id="motorcycle18" type="motorcycle_motorcycle" depart="27.62" departLane="best" from="-22762630#8" to="-50655178#2"/>
    <trip id="motorcycle19" type="motorcycle_motorcycle" depart="29.16" departLane="best" from="-539264384#4" to="-5002686#0"/>
    <trip id="motorcycle20" type="motorcycle_motorcycle" depart="30.69" departLane="best" from="-197335659#5" to="26808164#4"/>
    <trip id="motorcycle21" type="motorcycle_motorcycle" depart="32.23" departLane="best" from="74310485#7" to="-196637993#4"/>
    <trip id="motorcycle22" type="motorcycle_motorcycle" depart="33.76" departLane="best" from="208638934#4" to="1096045402#0"/>
    <trip id="motorcycle23" type="motorcycle_motorcycle" depart="35.30" departLane="best" departSpeed="max" from="104016028" to="16286776#4"/>
    <trip id="motorcycle24" type="motorcycle_motorcycle" depart="36.83" departLane="best" from="908312509" to="-208638934#1"/>
    <trip id="motorcycle25" type="motorcycle_motorcycle" depart="38.37" departLane="best" from="-906584131#1" to="-79181621#1"/>
    <trip id="motorcycle26" type="motorcycle_motorcycle" depart="39.90" departLane="best" from="96876147#2" to="-72713077#3"/>
    <trip id="motorcycle27" type="motorcycle_motorcycle" depart="41.43" departLane="best" from="88114118#1" to="81539622#0"/>
    <trip id="motorcycle28" type="motorcycle_motorcycle" depart="42.97" departLane="best" from="-17366325#5" to="-48566422#0"/>
    <trip id="motorcycle29" type="motorcycle_motorcycle" depart="44.50" departLane="best" from="-902041371#1" to="-191171275#1"/>
    <trip id="motorcycle30" type="motorcycle_motorcycle" depart="46.04" departLane="best" from="-209977258#5" to="5008831#1"/>
    <trip id="motorcycle31" type="motorcycle_motorcycle" depart="47.57" departLane="best" from="20612535#0" to="541172823"/>
    <trip id="motorcycle33" type="motorcycle_motorcycle" depart="50.64" departLane="best" from="197347297#0" to="-48566416#1"/>
    <trip id="motorcycle34" type="motorcycle_motorcycle" depart="52.18" departLane="best" from="76278997" to="76276824#2"/>
    <trip id="motorcycle35" type="motorcycle_motorcycle" depart="53.71" departLane="best" from="81637718#0" to="-265600491#1"/>
    <trip id="motorcycle36" type="motorcycle_motorcycle" depart="55.25" departLane="best" from="-23115875#2" to="-22057038#2"/>
    <trip id="motorcycle37" type="motorcycle_motorcycle" depart="56.78" departLane="best" departSpeed="max" from="104016028" to="-70935305#2"/>
    <trip id="motorcycle38" type="motorcycle_motorcycle" depart="58.31" departLane="best" from="-270483375#2" to="696710724#0"/>
    <trip id="motorcycle39" type="motorcycle_motorcycle" depart="59.85" departLane="best" from="-802554897#1" to="20614586#10"/>
    <trip id="motorcycle40" type="motorcycle_motorcycle" depart="61.38" departLane="best" from="-265803949#2" to="81585365"/>
    <trip id="motorcycle41" type="motorcycle_motorcycle" depart="62.92" departLane="best" from="74508909#0" to="74508909#0"/>
    <trip id="motorcycle42" type="motorcycle_motorcycle" depart="64.45" departLane="best" from="71201335" to="76281476#3"/>
    <trip id="motorcycle43" type="motorcycle_motorcycle" depart="65.99" departLane="best" from="50664460" to="71851121#2"/>
    <trip id="motorcycle44" type="motorcycle_motorcycle" depart="67.52" departLane="best" from="147521173#1" to="-74212347#3"/>
    <trip id="motorcycle45" type="motorcycle_motorcycle" depart="69.06" departLane="best" from="884897317#0" to="41601194#2"/>
    <trip id="motorcycle46" type="motorcycle_motorcycle" depart="70.59" departLane="best" from="876088077" to="-70726937"/>
    <trip id="motorcycle47" type="motorcycle_motorcycle" depart="72.13" departLane="best" departSpeed="max" from="-81535474" to="196637993#18"/>
    <trip id="motorcycle48" type="motorcycle_motorcycle" depart="73.66" departLane="best" from="5008797#3" to="-73833100#5"/>
    <trip id="motorcycle49" type="motorcycle_motorcycle" depart="75.20" departLane="best" from="-80203006#8" to="25441286#1"/>
    <trip id="motorcycle50" type="motorcycle_motorcycle" depart="76.73" departLane="best" from="400810156#0" to="-16286765#6"/>
    <trip id="motorcycle51" type="motorcycle_motorcycle" depart="78.26" departLane="best" from="1033555794" to="-542424891#4"/>
    <trip id="motorcycle52" type="motorcycle_motorcycle" depart="79.80" departLane="best" from="-629177224#7" to="74212357#3"/>
    <trip id="motorcycle53" type="motorcycle_motorcycle" depart="81.33" departLane="best" from="5008797#0" to="191628561#1"/>
    <trip id="motorcycle54" type="motorcycle_motorcycle" depart="82.87" departLane="best" from="199291608#1" to="-71961789#3"/>
    <trip id="motorcycle55" type="motorcycle_motorcycle" depart="84.40" departLane="best" from="20614579#1" to="-243133902#17"/>
    <trip id="motorcycle56" type="motorcycle_motorcycle" depart="85.94" departLane="best" departSpeed="max" from="-78735560" to="47705605#0"/>
    <trip id="motorcycle57" type="motorcycle_motorcycle" depart="87.47" departLane="best" from="-23370192#1" to="159990385#0"/>
    <trip id="motorcycle58" type="motorcycle_motorcycle" depart="89.01" departLane="best" from="621463438#4" to="621463438#4"/>
    <trip id="motorcycle59" type="motorcycle_motorcycle" depart="90.54" departLane="best" from="-114194005#7" to="20611641#3"/>
    <trip id="motorcycle60" type="motorcycle_motorcycle" depart="92.08" departLane="best" from="114195071#2" to="-263475701#2"/>
    <trip id="motorcycle61" type="motorcycle_motorcycle" depart="93.61" departLane="best" from="71892231#0" to="878883004#1"/>
    <trip id="motorcycle62" type="motorcycle_motorcycle" depart="95.15" departLane="best" from="5007505" to="-197347727"/>
    <trip id="motorcycle63" type="motorcycle_motorcycle" depart="96.68" departLane="best" from="-48290280" to="265590375#9"/>
    <trip id="motorcycle64" type="motorcycle_motorcycle" depart="98.21" departLane="best" from="26808164#6" to="72096417"/>
    <trip id="motorcycle65" type="motorcycle_motorcycle" depart="99.75" departLane="best" from="-1121868638" to="-533379865#3"/>
    <trip id="motorcycle66" type="motorcycle_motorcycle" depart="101.28" departLane="best" from="-79629217#0" to="76279001#1"/>
    <trip id="motorcycle67" type="motorcycle_motorcycle" depart="102.82" departLane="best" from="48566360#1" to="70935304#1"/>
    <trip id="motorcycle68" type="motorcycle_motorcycle" depart="104.35" departLane="best" from="-199901193#3" to="107241872"/>
    <trip id="motorcycle69" type="motorcycle_motorcycle" depart="105.89" departLane="best" from="48566395#3" to="-70879989"/>
    <trip id="motorcycle70" type="motorcycle_motorcycle" depart="107.42" departLane="best" from="-173608503" to="532947863#1"/>
    <trip id="motorcycle71" type="motorcycle_motorcycle" depart="108.96" departLane="best" from="-71961789#1" to="21802772#0"/>
    <trip id="motorcycle72" type="motorcycle_motorcycle" depart="110.49" departLane="best" from="16286778#4" to="113142043#2"/>
    <trip id="motorcycle73" type="motorcycle_motorcycle" depart="112.03" departLane="best" from="47008154#0" to="-17366367#4"/>
    <trip id="motorcycle74" type="motorcycle_motorcycle" depart="113.56" departLane="best" from="-197347301#1" to="265803951#1"/>
    <trip id="motorcycle75" type="motorcycle_motorcycle" depart="115.10" departLane="best" from="-190801439#1" to="-262192744#0"/>
    <trip id="motorcycle76" type="motorcycle_motorcycle" depart="116.63" departLane="best" from="113586958#2" to="74354626#2"/>
    <trip id="motorcycle77" type="motorcycle_motorcycle" depart="118.16" departLane="best" from="929290505#4" to="74212356#1"/>
    <trip id="motorcycle78" type="motorcycle_motorcycle" depart="119.70" departLane="best" from="-41601197#0" to="-265590370"/>
    <trip id="motorcycle79" type="motorcycle_motorcycle" depart="121.23" departLane="best" from="-41601195#1" to="-197347297#1"/>
    <trip id="motorcycle80" type="motorcycle_motorcycle" depart="122.77" departLane="best" from="-541164733" to="4995525"/>
    <trip id="motorcycle81" type="motorcycle_motorcycle" depart="124.30" departLane="best" departSpeed="max" from="108776654" to="20614578#2"/>
    <trip id="motorcycle82" type="motorcycle_motorcycle" depart="125.84" departLane="best" from="354892172#2" to="80602899#1"/>
    <trip id="motorcycle83" type="motorcycle_motorcycle" depart="127.37" departLane="best" from="-72051041#5" to="-22762632#2"/>
    <trip id="motorcycle84" type="motorcycle_motorcycle" depart="128.91" departLane="best" from="48566395#3" to="48566395#3"/>
    <trip id="motorcycle85" type="motorcycle_motorcycle" depart="130.44" departLane="best" from="22812333#3" to="289286693#1"/>
    <trip id="motorcycle86" type="motorcycle_motorcycle" depart="131.98" departLane="best" from="542889613#1" to="265582285"/>
    <trip id="motorcycle87" type="motorcycle_motorcycle" depart="133.51" departLane="best" from="243167822#4" to="542120593"/>
    <trip id="motorcycle88" type="motorcycle_motorcycle" depart="135.05" departLane="best" from="-27467272#2" to="207342653#2"/>
    <trip id="motorcycle89" type="motorcycle_motorcycle" depart="136.58" departLane="best" from="95023296#0" to="80604434#1"/>
    <trip id="motorcycle90" type="motorcycle_motorcycle" depart="138.11" departLane="best" from="80748710#1" to="80748710#1"/>
    <trip id="motorcycle91" type="motorcycle_motorcycle" depart="139.65" departLane="best" from="-20608184#0" to="-80201124#1"/>
    <trip id="motorcycle92" type="motorcycle_motorcycle" depart="141.18" departLane="best" from="20618822" to="20614575#2"/>
    <trip id="motorcycle93" type="motorcycle_motorcycle" depart="142.72" departLane="best" from="47705132#0" to="48566248#3"/>
    <trip id="motorcycle94" type="motorcycle_motorcycle" depart="144.25" departLane="best" from="646491863" to="-16361951#4"/>
    <trip id="motorcycle95" type="motorcycle_motorcycle" depart="145.79" departLane="best" from="71205596#4" to="-82629227"/>
    <trip id="motorcycle96" type="motorcycle_motorcycle" depart="147.32" departLane="best" from="-371796472#1" to="74212384#4"/>
    <trip id="motorcycle97" type="motorcycle_motorcycle" depart="148.86" departLane="best" from="5008638#9" to="622632048#1"/>
    <trip id="motorcycle98" type="motorcycle_motorcycle" depart="150.39" departLane="best" from="21802772#0" to="27467272#2"/>
    <trip id="motorcycle99" type="motorcycle_motorcycle" depart="151.93" departLane="best" from="80202471#0" to="47705548#1"/>
    <trip id="motorcycle100" type="motorcycle_motorcycle" depart="153.46" departLane="best" from="-270483375#3" to="113144239#5"/>
    <trip id="motorcycle101" type="motorcycle_motorcycle" depart="154.99" departLane="best" from="95023296#2" to="-72713072#11"/>
    <trip id="motorcycle102" type="motorcycle_motorcycle" depart="156.53" departLane="best" from="-71961798#5" to="70881094#0"/>
    <trip id="motorcycle103" type="motorcycle_motorcycle" depart="158.06" departLane="best" from="876088084#1" to="-243133902#17"/>
    <trip id="motorcycle104" type="motorcycle_motorcycle" depart="159.60" departLane="best" from="879223008#0" to="74354626#2"/>
    <trip id="motorcycle105" type="motorcycle_motorcycle" depart="161.13" departLane="best" from="50655178#0" to="905856180#1"/>
    <trip id="motorcycle106" type="motorcycle_motorcycle" depart="162.67" departLane="best" from="880204315#2" to="70935303#3"/>
    <trip id="motorcycle107" type="motorcycle_motorcycle" depart="164.20" departLane="best" from="112595539#1" to="20608183#2"/>
    <trip id="motorcycle108" type="motorcycle_motorcycle" depart="165.74" departLane="best" from="459624020" to="22812515#1"/>
    <trip id="motorcycle109" type="motorcycle_motorcycle" depart="167.27" departLane="best" from="-14643196#1" to="-78248865#1"/>
    <trip id="motorcycle110" type="motorcycle_motorcycle" depart="168.81" departLane="best" from="218234607#4" to="80608169#0"/>
    <trip id="motorcycle111" type="motorcycle_motorcycle" depart="170.34" departLane="best" from="243133902#9" to="-82640609#3"/>
    <trip id="motorcycle112" type="motorcycle_motorcycle" depart="171.88" departLane="best" from="1016646803#1" to="-208638934#5"/>
    <trip id="motorcycle113" type="motorcycle_motorcycle" depart="173.41" departLane="best" from="-23115867#0" to="-114194005#7"/>
    <trip id="motorcycle114" type="motorcycle_motorcycle" depart="174.94" departLane="best" from="48566360#1" to="48566478#2"/>
    <trip id="motorcycle115" type="motorcycle_motorcycle" depart="176.48" departLane="best" from="74892373#1" to="-75901677#1"/>
    <trip id="motorcycle116" type="motorcycle_motorcycle" depart="178.01" departLane="best" from="263475697#12" to="-80203006#6"/>
    <trip id="motorcycle117" type="motorcycle_motorcycle" depart="179.55" departLane="best" from="-24586917#1" to="22895535#1"/>
    <trip id="motorcycle118" type="motorcycle_motorcycle" depart="181.08" departLane="best" from="-542888742#6" to="-74523668#9"/>
    <trip id="motorcycle119" type="motorcycle_motorcycle" depart="182.62" departLane="best" from="538744100#13" to="199290493"/>
    <trip id="motorcycle120" type="motorcycle_motorcycle" depart="184.15" departLane="best" from="652258561#1" to="197335656#1"/>
    <trip id="motorcycle121" type="motorcycle_motorcycle" depart="185.69" departLane="best" from="-265803953#1" to="20614983#8"/>
    <trip id="motorcycle122" type="motorcycle_motorcycle" depart="187.22" departLane="best" from="199292203#0" to="-136388780#1"/>
    <trip id="motorcycle123" type="motorcycle_motorcycle" depart="188.76" departLane="best" from="1147669445" to="533379865#0"/>
    <trip id="motorcycle124" type="motorcycle_motorcycle" depart="190.29" departLane="best" from="-208638934#2" to="538744100#1"/>
    <trip id="motorcycle125" type="motorcycle_motorcycle" depart="191.83" departLane="best" from="5008831#2" to="884890355#0"/>
    <trip id="motorcycle126" type="motorcycle_motorcycle" depart="193.36" departLane="best" departSpeed="max" from="22057024#0" to="70935310#1"/>
    <trip id="motorcycle127" type="motorcycle_motorcycle" depart="194.89" departLane="best" from="-70879989" to="-41601197#3"/>
    <trip id="motorcycle128" type="motorcycle_motorcycle" depart="196.43" departLane="best" from="-79629212#5" to="1033551663#0"/>
    <trip id="motorcycle129" type="motorcycle_motorcycle" depart="197.96" departLane="best" from="47008155#6" to="-17366367#4"/>
    <trip id="motorcycle130" type="motorcycle_motorcycle" depart="199.50" departLane="best" from="-879223008#2" to="23359701#0"/>
    <trip id="motorcycle131" type="motorcycle_motorcycle" depart="201.03" departLane="best" from="48566478#2" to="-23370192#0"/>
    <trip id="motorcycle132" type="motorcycle_motorcycle" depart="202.57" departLane="best" from="75225250#2" to="70882157#2"/>
    <trip id="motorcycle133" type="motorcycle_motorcycle" depart="204.10" departLane="best" from="80624537#1" to="-20611643#0"/>
    <trip id="motorcycle134" type="motorcycle_motorcycle" depart="205.64" departLane="best" from="-22895532" to="19795223#3"/>
    <trip id="motorcycle135" type="motorcycle_motorcycle" depart="207.17" departLane="best" from="79629212#2" to="-76281476#0"/>
    <trip id="motorcycle136" type="motorcycle_motorcycle" depart="208.71" departLane="best" from="80497984#0" to="-80203006#8"/>
    <trip id="motorcycle137" type="motorcycle_motorcycle" depart="210.24" departLane="best" from="-24655033#2" to="-47707315#4"/>
    <trip id="motorcycle138" type="motorcycle_motorcycle" depart="211.78" departLane="best" from="402180079#0" to="402333599"/>
    <trip id="motorcycle139" type="motorcycle_motorcycle" depart="213.31" departLane="best" from="630306073#3" to="190855218#0"/>
    <trip id="motorcycle140" type="motorcycle_motorcycle" depart="214.84" departLane="best" from="542424891#8" to="622632051#2"/>
    <trip id="motorcycle141" type="motorcycle_motorcycle" depart="216.38" departLane="best" departSpeed="max" from="80201118" to="114254501#10"/>
    <trip id="motorcycle142" type="motorcycle_motorcycle" depart="217.91" departLane="best" from="-263478933#0" to="191171868#3"/>
    <trip id="motorcycle143" type="motorcycle_motorcycle" depart="219.45" departLane="best" from="22056966#0" to="-80202469#1"/>
    <trip id="motorcycle144" type="motorcycle_motorcycle" depart="220.98" departLane="best" from="191172830#1" to="369917418#0"/>
    <trip id="motorcycle145" type="motorcycle_motorcycle" depart="222.52" departLane="best" from="-112892789#3" to="197347307#5"/>
    <trip id="motorcycle146" type="motorcycle_motorcycle" depart="224.05" departLane="best" from="79623947#0" to="23115875#2"/>
    <trip id="motorcycle147" type="motorcycle_motorcycle" depart="225.59" departLane="best" from="-243167820#1" to="-80203511#1"/>
    <trip id="motorcycle148" type="motorcycle_motorcycle" depart="227.12" departLane="best" from="-876203133#0" to="23054008#0"/>
    <trip id="motorcycle149" type="motorcycle_motorcycle" depart="228.66" departLane="best" departSpeed="max" from="70935310#0" to="289286694#2"/>
    <trip id="motorcycle150" type="motorcycle_motorcycle" depart="230.19" departLane="best" from="-72713072#13" to="-81528827"/>
    <trip id="motorcycle151" type="motorcycle_motorcycle" depart="231.73" departLane="best" from="15218833#1" to="-71223025"/>
    <trip id="motorcycle152" type="motorcycle_motorcycle" depart="233.26" departLane="best" from="-23370192#8" to="-23370192#8"/>
    <trip id="motorcycle153" type="motorcycle_motorcycle" depart="234.79" departLane="best" from="-179274974#1" to="191172503#0"/>
    <trip id="motorcycle154" type="motorcycle_motorcycle" depart="236.33" departLane="best" from="542424891#2" to="-965010804"/>
    <trip id="motorcycle155" type="motorcycle_motorcycle" depart="237.86" departLane="best" from="80352299" to="23115869#6"/>
    <trip id="motorcycle156" type="motorcycle_motorcycle" depart="239.40" departLane="best" from="-113586687#1" to="71591627#0"/>
    <trip id="motorcycle157" type="motorcycle_motorcycle" depart="240.93" departLane="best" from="1096043387" to="24655033#0"/>
    <trip id="motorcycle158" type="motorcycle_motorcycle" depart="242.47" departLane="best" departSpeed="max" from="-56181612#2" to="1016646803#1"/>
    <trip id="motorcycle159" type="motorcycle_motorcycle" depart="244.00" departLane="best" from="19827479#0" to="-191741590#0"/>
    <trip id="motorcycle160" type="motorcycle_motorcycle" depart="245.54" departLane="best" from="26808164#7" to="907866332"/>
    <trip id="motorcycle161" type="motorcycle_motorcycle" depart="247.07" departLane="best" from="-191174330#0" to="651936764"/>
    <trip id="motorcycle162" type="motorcycle_motorcycle" depart="248.61" departLane="best" from="16361962#5" to="-477905606#3"/>
    <trip id="motorcycle163" type="motorcycle_motorcycle" depart="250.14" departLane="best" from="78735555#2" to="539264384#4"/>
    <trip id="motorcycle164" type="motorcycle_motorcycle" depart="251.67" departLane="best" from="197335673#4" to="70882157#1"/>
    <trip id="motorcycle165" type="motorcycle_motorcycle" depart="253.21" departLane="best" from="-19795221" to="30919895#2"/>
    <trip id="motorcycle166" type="motorcycle_motorcycle" depart="254.74" departLane="best" from="-81528832" to="70882157#0"/>
    <trip id="motorcycle167" type="motorcycle_motorcycle" depart="256.28" departLane="best" from="-243167822#4" to="243167822#4"/>
    <trip id="motorcycle168" type="motorcycle_motorcycle" depart="257.81" departLane="best" departSpeed="max" from="80201131" to="-114194005#6"/>
    <trip id="motorcycle169" type="motorcycle_motorcycle" depart="259.35" departLane="best" from="20612535#0" to="79623949#1"/>
    <trip id="motorcycle170" type="motorcycle_motorcycle" depart="260.88" departLane="best" from="70418318#2" to="193223318#0"/>
    <trip id="motorcycle171" type="motorcycle_motorcycle" depart="262.42" departLane="best" from="-987933713" to="5008831#4"/>
    <trip id="motorcycle172" type="motorcycle_motorcycle" depart="263.95" departLane="best" from="71961796#1" to="197335668#2"/>
    <trip id="motorcycle173" type="motorcycle_motorcycle" depart="265.49" departLane="best" from="652402856" to="80602904#3"/>
    <trip id="motorcycle174" type="motorcycle_motorcycle" depart="267.02" departLane="best" from="191171274" to="22762632#1"/>
    <trip id="motorcycle175" type="motorcycle_motorcycle" depart="268.56" departLane="best" departSpeed="max" from="-265582285" to="-289286693#0"/>
    <trip id="motorcycle176" type="motorcycle_motorcycle" depart="270.09" departLane="best" from="-74898086#0" to="5007357#2"/>
    <trip id="motorcycle177" type="motorcycle_motorcycle" depart="271.62" departLane="best" departSpeed="max" from="-629975603" to="289286693#3"/>
    <trip id="motorcycle178" type="motorcycle_motorcycle" depart="273.16" departLane="best" from="-264902089#0" to="-264902089#0"/>
    <trip id="motorcycle179" type="motorcycle_motorcycle" depart="274.69" departLane="best" from="-243133902#6" to="74202461#2"/>
    <trip id="motorcycle180" type="motorcycle_motorcycle" depart="276.23" departLane="best" from="-14645797#4" to="-16361962#0"/>
    <trip id="motorcycle181" type="motorcycle_motorcycle" depart="277.76" departLane="best" departSpeed="max" from="304002314#0" to="22338490#4"/>
    <trip id="motorcycle182" type="motorcycle_motorcycle" depart="279.30" departLane="best" from="47707315#14" to="-72713077#1"/>
    <trip id="motorcycle183" type="motorcycle_motorcycle" depart="280.83" departLane="best" from="893426051#2" to="22895538#1"/>
    <trip id="motorcycle184" type="motorcycle_motorcycle" depart="282.37" departLane="best" from="622632054#4" to="191171868#0"/>
    <trip id="motorcycle185" type="motorcycle_motorcycle" depart="283.90" departLane="best" from="-80604433#3" to="-80604433#3"/>
    <trip id="motorcycle186" type="motorcycle_motorcycle" depart="285.44" departLane="best" from="70418324#1" to="-78735556"/>
    <trip id="motorcycle187" type="motorcycle_motorcycle" depart="286.97" departLane="best" from="-48466900#5" to="193223319#1"/>
    <trip id="motorcycle188" type="motorcycle_motorcycle" depart="288.51" departLane="best" from="-191171762#0" to="-16361959#2"/>
    <trip id="motorcycle189" type="motorcycle_motorcycle" depart="290.04" departLane="best" from="243165764#2" to="197335665#2"/>
    <trip id="motorcycle190" type="motorcycle_motorcycle" depart="291.57" departLane="best" from="205229188#0" to="5002662#1"/>
    <trip id="motorcycle191" type="motorcycle_motorcycle" depart="293.11" departLane="best" from="-73913540#4" to="71834091#0"/>
    <trip id="motorcycle192" type="motorcycle_motorcycle" depart="294.64" departLane="best" from="902044612" to="-22812333#1"/>
    <trip id="motorcycle193" type="motorcycle_motorcycle" depart="296.18" departLane="best" from="660532725#3" to="651936764"/>
    <trip id="motorcycle194" type="motorcycle_motorcycle" depart="297.71" departLane="best" from="22338490#0" to="50655177#3"/>
    <trip id="motorcycle195" type="motorcycle_motorcycle" depart="299.25" departLane="best" from="22762631#6" to="354892107#2"/>
    <trip id="motorcycle196" type="motorcycle_motorcycle" depart="300.78" departLane="best" from="114194005#3" to="-74310475#2"/>
    <trip id="motorcycle197" type="motorcycle_motorcycle" depart="302.32" departLane="best" from="-80201124#3" to="-80586464#1"/>
    <trip id="motorcycle198" type="motorcycle_motorcycle" depart="303.85" departLane="best" from="-73850666" to="71966038#0"/>
    <trip id="motorcycle199" type="motorcycle_motorcycle" depart="305.39" departLane="best" from="74505110#3" to="80203006#1"/>
    <trip id="motorcycle200" type="motorcycle_motorcycle" depart="306.92" departLane="best" from="47008153#3" to="47008153#3"/>
    <trip id="motorcycle201" type="motorcycle_motorcycle" depart="308.46" departLane="best" from="-20608184#0" to="81637911"/>
    <trip id="motorcycle202" type="motorcycle_motorcycle" depart="309.99" departLane="best" from="-48466947#26" to="-23370192#0"/>
    <trip id="motorcycle203" type="motorcycle_motorcycle" depart="311.52" departLane="best" from="5008638#1" to="-21802772#0"/>
    <trip id="motorcycle204" type="motorcycle_motorcycle" depart="313.06" departLane="best" from="20615464" to="-81580753#0"/>
    <trip id="motorcycle205" type="motorcycle_motorcycle" depart="314.59" departLane="best" from="-75901677#3" to="-16361951#3"/>
    <trip id="motorcycle206" type="motorcycle_motorcycle" depart="316.13" departLane="best" from="-80583012" to="-20612535#0"/>
    <trip id="motorcycle208" type="motorcycle_motorcycle" depart="319.20" departLane="best" from="80602900#5" to="372154871#5"/>
    <trip id="motorcycle209" type="motorcycle_motorcycle" depart="320.73" departLane="best" departSpeed="max" from="76281476#0" to="384173115#1"/>
    <trip id="motorcycle210" type="motorcycle_motorcycle" depart="322.27" departLane="best" from="-81637911" to="87645826"/>
    <trip id="motorcycle211" type="motorcycle_motorcycle" depart="323.80" departLane="best" from="74310475#0" to="80201129#1"/>
    <trip id="motorcycle212" type="motorcycle_motorcycle" depart="325.34" departLane="best" from="197335672#5" to="197335663#1"/>
    <trip id="motorcycle213" type="motorcycle_motorcycle" depart="326.87" departLane="best" from="-20611647" to="-47006341#2"/>
    <trip id="motorcycle214" type="motorcycle_motorcycle" depart="328.41" departLane="best" from="70418318#2" to="-541164733"/>
    <trip id="motorcycle215" type="motorcycle_motorcycle" depart="329.94" departLane="best" from="542424891#3" to="868632823#1"/>
    <trip id="motorcycle216" type="motorcycle_motorcycle" depart="331.47" departLane="best" from="-80604434#0" to="72713072#10"/>
    <trip id="motorcycle217" type="motorcycle_motorcycle" depart="333.01" departLane="best" from="16286782#1" to="-20608184#0"/>