<?xml version="1.0" encoding="UTF-8"?>

<!-- generated on 2023-02-19 19:07:25.157182 by osmWebWizard.py v1_15_0+0002-e6790248698
<configuration>
    <end value="3600"/>
    <fringe-factor value="5"/>
    <fringe-start-attributes value="departSpeed=&quot;max&quot;"/>
    <insertion-density value="8.0"/>
    <min-distance.fringe value="10.0"/>
    <min-distance value="600.0"/>
    <net-file value="C:\Users\gueye\Sumo\2023-02-19-18-57-45\osm.net.xml.gz"/>
    <remove-loops value="True"/>
    <route-file value="C:\Users\gueye\Sumo\2023-02-19-18-57-45\osm.truck.rou.xml"/>
    <trip-attributes value="departLane=&quot;best&quot;"/>
    <output-trip-file value="C:\Users\gueye\Sumo\2023-02-19-18-57-45\osm.truck.trips.xml"/>
    <prefix value="truck"/>
    <validate value="True"/>
    <vclass value="truck"/>
    <vehicle-class value="truck"/>
</configuration>
-->

<!-- generated on 2023-02-19 19:07:14 by Eclipse SUMO duarouter Version 1.15.0
<configuration xmlns:xsi="http://www.w3.org/2001/XMLSchema-instance" xsi:noNamespaceSchemaLocation="http://sumo.dlr.de/xsd/duarouterConfiguration.xsd">

    <input>
        <net-file value="C:\Users\gueye\Sumo\2023-02-19-18-57-45\osm.net.xml.gz"/>
        <route-files value="C:\Users\gueye\Sumo\2023-02-19-18-57-45\osm.truck.trips.xml"/>
    </input>

    <output>
        <output-file value="C:\Users\gueye\Sumo\2023-02-19-18-57-45\osm.truck.trips.xml.tmp"/>
        <alternatives-output value="NUL"/>
        <write-trips value="true"/>
    </output>

    <processing>
        <remove-loops value="true"/>
    </processing>

    <time>
        <begin value="0"/>
        <end value="3600"/>
    </time>

    <report>
        <no-warnings value="true"/>
        <ignore-errors value="true"/>
        <no-step-log value="true"/>
    </report>

</configuration>
-->

<routes xmlns:xsi="http://www.w3.org/2001/XMLSchema-instance" xsi:noNamespaceSchemaLocation="http://sumo.dlr.de/xsd/routes_file.xsd">
    <vType id="truck_truck" vClass="truck"/>
    <trip id="truck0" type="truck_truck" depart="0.00" departLane="best" from="270472061" to="-114197671#2"/>
    <trip id="truck1" type="truck_truck" depart="0.77" departLane="best" departSpeed="max" from="-71834090" to="-5008846#2"/>
    <trip id="truck2" type="truck_truck" depart="1.54" departLane="best" from="47705629#2" to="47705629#2"/>
    <trip id="truck3" type="truck_truck" depart="2.30" departLane="best" departSpeed="max" from="80201118" to="20608184#0"/>
    <trip id="truck4" type="truck_truck" depart="3.07" departLane="best" from="1031658813" to="-14643200#2"/>
    <trip id="truck5" type="truck_truck" depart="3.84" departLane="best" from="-533379865#1" to="191174316"/>
    <trip id="truck6" type="truck_truck" depart="4.61" departLane="best" from="-14645795#5" to="-47707315#14"/>
    <trip id="truck7" type="truck_truck" depart="5.38" departLane="best" from="354892107#2" to="20614575#3"/>
    <trip id="truck8" type="truck_truck" depart="6.15" departLane="best" from="-70879989" to="22895538#0"/>
    <trip id="truck10" type="truck_truck" depart="7.68" departLane="best" from="70935310#1" to="70935310#1"/>
    <trip id="truck11" type="truck_truck" depart="8.45" departLane="best" from="-80202469#1" to="-265397452#0"/>
    <trip id="truck12" type="truck_truck" depart="9.22" departLane="best" from="87410498#3" to="-78363498#0"/>
    <trip id="truck13" type="truck_truck" depart="9.99" departLane="best" from="-207342653#3" to="-20616423#1"/>
    <trip id="truck14" type="truck_truck" depart="10.76" departLane="best" from="-74212384#4" to="243133902#9"/>
    <trip id="truck15" type="truck_truck" depart="11.52" departLane="best" from="-16361956#2" to="533970865"/>
    <trip id="truck16" type="truck_truck" depart="12.29" departLane="best" from="205229188#7" to="205229188#7"/>
    <trip id="truck17" type="truck_truck" depart="13.06" departLane="best" from="82629204#1" to="207342653#0"/>
    <trip id="truck18" type="truck_truck" depart="13.83" departLane="best" from="72713042#1" to="263475697#9"/>
    <trip id="truck19" type="truck_truck" depart="14.60" departLane="best" from="48566422#1" to="-16361953#0"/>
    <trip id="truck20" type="truck_truck" depart="15.36" departLane="best" from="541176237#3" to="72051041#3"/>
    <trip id="truck21" type="truck_truck" depart="16.13" departLane="best" from="20606824#1" to="-538773530#0"/>
    <trip id="truck22" type="truck_truck" depart="16.90" departLane="best" from="-21876225#0" to="-71082577#0"/>
    <trip id="truck23" type="truck_truck" depart="17.67" departLane="best" from="-265803953#4" to="-80624538#0"/>
    <trip id="truck24" type="truck_truck" depart="18.44" departLane="best" from="-48466947#6" to="-48466947#6"/>
    <trip id="truck25" type="truck_truck" depart="19.21" departLane="best" from="24586917#3" to="24586917#3"/>
    <trip id="truck26" type="truck_truck" depart="19.97" departLane="best" from="-41601198#3" to="533966836#0"/>
    <trip id="truck27" type="truck_truck" depart="20.74" departLane="best" from="371796472#8" to="-81637718#0"/>
    <trip id="truck28" type="truck_truck" depart="21.51" departLane="best" from="929290505#3" to="-354892144#1"/>
    <trip id="truck29" type="truck_truck" depart="22.28" departLane="best" from="-208638934#4" to="-48466173#3"/>
    <trip id="truck30" type="truck_truck" depart="23.05" departLane="best" from="74212356#14" to="660905300#3"/>
    <trip id="truck31" type="truck_truck" depart="23.81" departLane="best" from="542424891#1" to="-14645797#2"/>
    <trip id="truck32" type="truck_truck" depart="24.58" departLane="best" from="-74888146" to="-70794467#4"/>
    <trip id="truck33" type="truck_truck" depart="25.35" departLane="best" from="5007407" to="-82640609#3"/>
    <trip id="truck34" type="truck_truck" depart="26.12" departLane="best" from="76279001#3" to="-74313950#2"/>
    <trip id="truck35" type="truck_truck" depart="26.89" departLane="best" from="372154871#0" to="372154871#0"/>
    <trip id="truck36" type="truck_truck" depart="27.66" departLane="best" from="80604433#3" to="14643196#0"/>
    <trip id="truck37" type="truck_truck" depart="28.42" departLane="best" from="70935301#0" to="622632054#3"/>
    <trip id="truck38" type="truck_truck" depart="29.19" departLane="best" from="21812240" to="70418317"/>
    <trip id="truck39" type="truck_truck" depart="29.96" departLane="best" from="-22762631#4" to="-80497983#1"/>
    <trip id="truck40" type="truck_truck" depart="30.73" departLane="best" from="-4995409#2" to="-4995409#2"/>
    <trip id="truck41" type="truck_truck" depart="31.50" departLane="best" from="191915830#0" to="191915830#0"/>
    <trip id="truck42" type="truck_truck" depart="32.27" departLane="best" from="-22057030#0" to="265803949#1"/>
    <trip id="truck43" type="truck_truck" depart="33.03" departLane="best" from="-70726939#1" to="1016646803#2"/>
    <trip id="truck44" type="truck_truck" depart="33.80" departLane="best" from="191741590#1" to="-81707857#1"/>
    <trip id="truck45" type="truck_truck" depart="34.57" departLane="best" departSpeed="max" from="199292048#2" to="199292048#2"/>
    <trip id="truck46" type="truck_truck" depart="35.34" departLane="best" from="884899260#0" to="74888147"/>
    <trip id="truck47" type="truck_truck" depart="36.11" departLane="best" from="-1121868635" to="532947863#3"/>
    <trip id="truck48" type="truck_truck" depart="36.87" departLane="best" from="476738397" to="20606829"/>
    <trip id="truck49" type="truck_truck" depart="37.64" departLane="best" from="70935305#1" to="354892175#1"/>
    <trip id="truck50" type="truck_truck" depart="38.41" departLane="best" from="-22338197" to="1096043272#1"/>
    <trip id="truck51" type="truck_truck" depart="39.18" departLane="best" from="114254501#4" to="87416837#4"/>
    <trip id="truck52" type="truck_truck" depart="39.95" departLane="best" from="-76279001#0" to="-70418318#4"/>
    <trip id="truck53" type="truck_truck" depart="40.72" departLane="best" from="-190801439#2" to="-384169138#1"/>
    <trip id="truck54" type="truck_truck" depart="41.48" departLane="best" from="80602905#1" to="75901682#1"/>
    <trip id="truck55" type="truck_truck" depart="42.25" departLane="best" from="243167822#4" to="-263478933#3"/>
    <trip id="truck56" type="truck_truck" depart="43.02" departLane="best" from="622800566#3" to="20608184#0"/>
    <trip id="truck57" type="truck_truck" depart="43.79" departLane="best" from="660495330#2" to="199292127#4"/>
    <trip id="truck58" type="truck_truck" depart="44.56" departLane="best" from="-1006730649#1" to="-75088506#0"/>
    <trip id="truck59" type="truck_truck" depart="45.32" departLane="best" from="-114194008#0" to="-114194008#0"/>
    <trip id="truck60" type="truck_truck" depart="46.09" departLane="best" from="76281482#1" to="73850664#1"/>
    <trip id="truck61" type="truck_truck" depart="46.86" departLane="best" from="74310485#9" to="-178348838#1"/>
    <trip id="truck62" type="truck_truck" depart="47.63" departLane="best" from="76281476#4" to="82677677#1"/>
    <trip id="truck63" type="truck_truck" depart="48.40" departLane="best" from="-20612533" to="17366325#6"/>
    <trip id="truck64" type="truck_truck" depart="49.17" departLane="best" from="-197335657#0" to="629177224#10"/>
    <trip id="truck65" type="truck_truck" depart="49.93" departLane="best" from="629177224#11" to="-22895529#5"/>
    <trip id="truck66" type="truck_truck" depart="50.70" departLane="best" departSpeed="max" from="16286782#0" to="20614983#8"/>
    <trip id="truck67" type="truck_truck" depart="51.47" departLane="best" from="-70935301#1" to="76276824#2"/>
    <trip id="truck68" type="truck_truck" depart="52.24" departLane="best" from="1033551664" to="48566227#2"/>
    <trip id="truck69" type="truck_truck" depart="53.01" departLane="best" from="20608179#0" to="533994933#1"/>
    <trip id="truck70" type="truck_truck" depart="53.78" departLane="best" from="-48566248#4" to="-74310475#7"/>
    <trip id="truck71" type="truck_truck" depart="54.54" departLane="best" from="965125129" to="965125129"/>
    <trip id="truck72" type="truck_truck" depart="55.31" departLane="best" departSpeed="max" from="111596466#0" to="197335663#1"/>
    <trip id="truck73" type="truck_truck" depart="56.08" departLane="best" departSpeed="max" from="-80201128#1" to="22895534#0"/>
    <trip id="truck74" type="truck_truck" depart="56.85" departLane="best" from="-542888742#0" to="-4997046#1"/>
    <trip id="truck75" type="truck_truck" depart="57.62" departLane="best" from="197335673#1" to="270483375#0"/>
    <trip id="truck76" type="truck_truck" depart="58.38" departLane="best" from="-542424891#0" to="80602906#1"/>
    <trip id="truck77" type="truck_truck" depart="59.15" departLane="best" from="74523667#2" to="196637993#1"/>
    <trip id="truck78" type="truck_truck" depart="59.92" departLane="best" from="-622632054#3" to="47008153#5"/>
    <trip id="truck79" type="truck_truck" depart="60.69" departLane="best" from="50655177#2" to="-22981219#0"/>
    <trip id="truck80" type="truck_truck" depart="61.46" departLane="best" from="-81637718#3" to="-22057008#1"/>
    <trip id="truck81" type="truck_truck" depart="62.23" departLane="best" from="16286776#3" to="70418317"/>
    <trip id="truck82" type="truck_truck" depart="62.99" departLane="best" from="-71205596#2" to="-44098781#4"/>
    <trip id="truck83" type="truck_truck" depart="63.76" departLane="best" from="209977258#6" to="107245678#0"/>
    <trip id="truck84" type="truck_truck" depart="64.53" departLane="best" from="1033555794" to="16286764#3"/>
    <trip id="truck85" type="truck_truck" depart="65.30" departLane="best" from="533171257#0" to="533171257#0"/>
    <trip id="truck86" type="truck_truck" depart="66.07" departLane="best" from="-902044612" to="-79569494"/>
    <trip id="truck87" type="truck_truck" depart="66.83" departLane="best" from="-74523668#9" to="623886372#0"/>
    <trip id="truck88" type="truck_truck" depart="67.60" departLane="best" from="48287357#2" to="-114017878#5"/>
    <trip id="truck89" type="truck_truck" depart="68.37" departLane="best" from="1031658813" to="-710994066#1"/>
    <trip id="truck90" type="truck_truck" depart="69.14" departLane="best" from="-660905300#3" to="-81580746#2"/>
    <trip id="truck91" type="truck_truck" depart="69.91" departLane="best" from="1094326393#1" to="74892376#0"/>
    <trip id="truck92" type="truck_truck" depart="70.68" departLane="best" from="20614586#3" to="20614586#3"/>
    <trip id="truck93" type="truck_truck" depart="71.44" departLane="best" from="96876147#2" to="74202461#3"/>
    <trip id="truck94" type="truck_truck" depart="72.21" departLane="best" departSpeed="max" from="88114118#0" to="81637718#2"/>
    <trip id="truck95" type="truck_truck" depart="72.98" departLane="best" from="74212959#3" to="27467272#0"/>
    <trip id="truck96" type="truck_truck" depart="73.75" departLane="best" from="16361962#1" to="-48566360#7"/>
    <trip id="truck97" type="truck_truck" depart="74.52" departLane="best" departSpeed="max" from="-897396363" to="-178404048#2"/>
    <trip id="truck98" type="truck_truck" depart="75.29" departLane="best" from="82629204#4" to="927188021#0"/>
    <trip id="truck99" type="truck_truck" depart="76.05" departLane="best" from="-70935301#2" to="70410368#3"/>
    <trip id="truck100" type="truck_truck" depart="76.82" departLane="best" from="115431934#1" to="1022381296"/>
    <trip id="truck101" type="truck_truck" depart="77.59" departLane="best" from="87410498#4" to="87410498#4"/>
    <trip id="truck102" type="truck_truck" depart="78.36" departLane="best" from="207348735#2" to="50655178#5"/>
    <trip id="truck103" type="truck_truck" depart="79.13" departLane="best" from="-27467272#5" to="-72714608#3"/>
    <trip id="truck104" type="truck_truck" depart="79.89" departLane="best" departSpeed="max" from="88114118#0" to="22762539#2"/>
    <trip id="truck105" type="truck_truck" depart="80.66" departLane="best" from="20611639#6" to="554670303"/>
    <trip id="truck106" type="truck_truck" depart="81.43" departLane="best" from="-191171868#2" to="-22812333#3"/>
    <trip id="truck107" type="truck_truck" depart="82.20" departLane="best" from="191170314#3" to="74354626#2"/>
    <trip id="truck108" type="truck_truck" depart="82.97" departLane="best" from="-303878312#2" to="-87645828#0"/>
    <trip id="truck109" type="truck_truck" depart="83.74" departLane="best" from="20606824#3" to="-41601199#7"/>
    <trip id="truck110" type="truck_truck" depart="84.50" departLane="best" from="230154508#0" to="47705551"/>
    <trip id="truck111" type="truck_truck" depart="85.27" departLane="best" from="-575288084#0" to="-22762537#5"/>
    <trip id="truck112" type="truck_truck" depart="86.04" departLane="best" from="-79629212#7" to="622632054#0"/>
    <trip id="truck113" type="truck_truck" depart="86.81" departLane="best" from="263475701#2" to="263475701#2"/>
    <trip id="truck114" type="truck_truck" depart="87.58" departLane="best" from="1030411223" to="22762632#6"/>
    <trip id="truck115" type="truck_truck" depart="88.35" departLane="best" from="197335675#1" to="197335675#1"/>
    <trip id="truck116" type="truck_truck" depart="89.11" departLane="best" from="5008846#5" to="5008846#5"/>
    <trip id="truck117" type="truck_truck" depart="89.88" departLane="best" from="-622787789#3" to="-622787789#3"/>
    <trip id="truck118" type="truck_truck" depart="90.65" departLane="best" from="435286201#2" to="-73913539#5"/>
    <trip id="truck119" type="truck_truck" depart="91.42" departLane="best" from="-75043650#1" to="575288085#2"/>
    <trip id="truck120" type="truck_truck" depart="92.19" departLane="best" from="-197347297#0" to="14643186"/>
    <trip id="truck121" type="truck_truck" depart="92.95" departLane="best" from="197347301#0" to="-48566360#1"/>
    <trip id="truck122" type="truck_truck" depart="93.72" departLane="best" from="-70935301#2" to="817536827"/>
    <trip id="truck123" type="truck_truck" depart="94.49" departLane="best" from="-265590368" to="-265590368"/>
    <trip id="truck124" type="truck_truck" depart="95.26" departLane="best" from="72714608#4" to="4995525"/>
    <trip id="truck125" type="truck_truck" depart="96.03" departLane="best" from="371796472#5" to="-1033784220"/>
    <trip id="truck126" type="truck_truck" depart="96.80" departLane="best" from="71961787#2" to="-73913539#0"/>
    <trip id="truck127" type="truck_truck" depart="97.56" departLane="best" from="-41601196#1" to="82317604#1"/>
    <trip id="truck128" type="truck_truck" depart="98.33" departLane="best" from="243133902#1" to="-22057030#3"/>
    <trip id="truck129" type="truck_truck" depart="99.10" departLane="best" from="-22057001#2" to="207348735#2"/>
    <trip id="truck130" type="truck_truck" depart="99.87" departLane="best" from="-71223029" to="-243167819#0"/>
    <trip id="truck131" type="truck_truck" depart="100.64" departLane="best" from="5008638#3" to="48290027"/>
    <trip id="truck132" type="truck_truck" depart="101.40" departLane="best" from="-265803949#1" to="-70418324#0"/>
    <trip id="truck133" type="truck_truck" depart="102.17" departLane="best" from="80602906#1" to="80602906#1"/>
    <trip id="truck134" type="truck_truck" depart="102.94" departLane="best" from="-74212369#6" to="-20614573#4"/>
    <trip id="truck135" type="truck_truck" depart="103.71" departLane="best" from="1033555794" to="-70935308"/>
    <trip id="truck136" type="truck_truck" depart="104.48" departLane="best" from="-1031656701#0" to="652258561#4"/>
    <trip id="truck137" type="truck_truck" depart="105.25" departLane="best" departSpeed="max" from="265919878" to="-70410368#0"/>
    <trip id="truck138" type="truck_truck" depart="106.01" departLane="best" from="538744100#5" to="20618819#4"/>
    <trip id="truck139" type="truck_truck" depart="106.78" departLane="best" from="107241872" to="-108776654"/>
    <trip id="truck140" type="truck_truck" depart="107.55" departLane="best" from="-19795421#4" to="79568260#2"/>
    <trip id="truck141" type="truck_truck" depart="108.32" departLane="best" from="72714612#3" to="22762631#6"/>
    <trip id="truck142" type="truck_truck" depart="109.09" departLane="best" from="265297558#0" to="-22895525#5"/>
    <trip id="truck143" type="truck_truck" depart="109.86" departLane="best" from="-74502288#0" to="80497989#0"/>
    <trip id="truck144" type="truck_truck" depart="110.62" departLane="best" from="70794472#0" to="74888146"/>
    <trip id="truck145" type="truck_truck" depart="111.39" departLane="best" from="80202473#1" to="-48566147#1"/>
    <trip id="truck146" type="truck_truck" depart="112.16" departLane="best" from="-660905300#1" to="-21812215#2"/>
    <trip id="truck147" type="truck_truck" depart="112.93" departLane="best" from="660949185#0" to="79569495"/>
    <trip id="truck148" type="truck_truck" depart="113.70" departLane="best" from="-95023296#0" to="263478931#1"/>
    <trip id="truck149" type="truck_truck" depart="114.46" departLane="best" from="-27467272#3" to="-27467272#3"/>
    <trip id="truck150" type="truck_truck" depart="115.23" departLane="best" from="74895115#0" to="-902042531#2"/>
    <trip id="truck151" type="truck_truck" depart="116.00" departLane="best" from="-14643196#1" to="538773530#1"/>
    <trip id="truck152" type="truck_truck" depart="116.77" departLane="best" departSpeed="max" from="-79569495" to="-79569495"/>
    <trip id="truck153" type="truck_truck" depart="117.54" departLane="best" from="70935303#0" to="74904004#5"/>
    <trip id="truck154" type="truck_truck" depart="118.31" departLane="best" from="71591627#0" to="-70794464"/>
    <trip id="truck155" type="truck_truck" depart="119.07" departLane="best" from="-696710724#0" to="-22056977#1"/>
    <trip id="truck156" type="truck_truck" depart="119.84" departLane="best" from="75901677#13" to="74523668#12"/>
    <trip id="truck157" type="truck_truck" depart="120.61" departLane="best" from="-538617335#1" to="71961792#0"/>
    <trip id="truck158" type="truck_truck" depart="121.38" departLane="best" departSpeed="max" from="-74212357#0" to="-74212357#0"/>
    <trip id="truck159" type="truck_truck" depart="122.15" departLane="best" from="70794469#1" to="-533327242#0"/>
    <trip id="truck160" type="truck_truck" depart="122.91" departLane="best" from="-136388780#2" to="-47008154#1"/>
    <trip id="truck161" type="truck_truck" depart="123.68" departLane="best" from="-78250609#2" to="74908981#1"/>
    <trip id="truck162" type="truck_truck" depart="124.45" departLane="best" from="880204315#0" to="-71198188"/>
    <trip id="truck163" type="truck_truck" depart="125.22" departLane="best" from="-27467272#5" to="876203133#0"/>
    <trip id="truck164" type="truck_truck" depart="125.99" departLane="best" from="20606825#1" to="20606825#1"/>
    <trip id="truck165" type="truck_truck" depart="126.76" departLane="best" from="-22057030#2" to="-22057030#2"/>
    <trip id="truck166" type="truck_truck" depart="127.52" departLane="best" from="884897317#0" to="-372154872"/>
    <trip id="truck167" type="truck_truck" depart="128.29" departLane="best" from="-22057016#0" to="-22057016#0"/>
    <trip id="truck168" type="truck_truck" depart="129.06" departLane="best" from="533127465#5" to="-74310485#6"/>
    <trip id="truck169" type="truck_truck" depart="129.83" departLane="best" departSpeed="max" from="-82677677#1" to="22338489#1"/>
    <trip id="truck170" type="truck_truck" depart="130.60" departLane="best" from="-70418318#4" to="5007520"/>
    <trip id="truck171" type="truck_truck" depart="131.37" departLane="best" departSpeed="max" from="-1022381296" to="-81591067#1"/>
    <trip id="truck172" type="truck_truck" depart="132.13" departLane="best" from="-20606827#1" to="50655180#5"/>
    <trip id="truck173" type="truck_truck" depart="132.90" departLane="best" from="538768154" to="47008155#7"/>
    <trip id="truck174" type="truck_truck" depart="133.67" departLane="best" departSpeed="max" from="-81585363" to="191915830#1"/>
    <trip id="truck175" type="truck_truck" depart="134.44" departLane="best" from="41601198#0" to="-76279000#1"/>
    <trip id="truck176" type="truck_truck" depart="135.21" departLane="best" from="-74523668#2" to="-74310475#0"/>
    <trip id="truck177" type="truck_truck" depart="135.97" departLane="best" from="5008797#5" to="73913540#1"/>
    <trip id="truck178" type="truck_truck" depart="136.74" departLane="best" from="-74505105#0" to="-74505105#0"/>
    <trip id="truck179" type="truck_truck" depart="137.51" departLane="best" from="-902042531#2" to="-72713075#1"/>
    <trip id="truck181" type="truck_truck" depart="139.05" departLane="best" from="47707315#1" to="47707315#1"/>
    <trip id="truck182" type="truck_truck" depart="139.82" departLane="best" from="80352300" to="25441289#6"/>
    <trip id="truck183" type="truck_truck" depart="140.58" departLane="best" from="-74212369#7" to="20614586#4"/>
    <trip id="truck184" type="truck_truck" depart="141.35" departLane="best" from="-1006729252#0" to="-71961798#2"/>
    <trip id="truck185" type="truck_truck" depart="142.12" departLane="best" from="1090596657" to="-22762540#5"/>
    <trip id="truck186" type="truck_truck" depart="142.89" departLane="best" from="372154870#0" to="159639486"/>
    <trip id="truck187" type="truck_truck" depart="143.66" departLane="best" from="112595539#1" to="-48566360#7"/>
    <trip id="truck188" type="truck_truck" depart="144.42" departLane="best" from="16286778#0" to="80588247#1"/>
    <trip id="truck189" type="truck_truck" depart="145.19" departLane="best" from="70794471" to="303878312#2"/>
    <trip id="truck190" type="truck_truck" depart="145.96" departLane="best" from="-20611643#1" to="196854972#3"/>
    <trip id="truck191" type="truck_truck" depart="146.73" departLane="best" from="265590376#0" to="78250607"/>
    <trip id="truck192" type="truck_truck" depart="147.50" departLane="best" from="-71961790#2" to="575279875#1"/>
    <trip id="truck193" type="truck_truck" depart="148.27" departLane="best" from="43633674#0" to="-50655177#5"/>
    <trip id="truck194" type="truck_truck" depart="149.03" departLane="best" departSpeed="max" from="-48566147#8" to="-114195071#2"/>
    <trip id="truck195" type="truck_truck" depart="149.80" departLane="best" from="74220909" to="196637993#5"/>
    <trip id="truck196" type="truck_truck" depart="150.57" departLane="best" departSpeed="max" from="26808164#5" to="26808164#5"/>
    <trip id="truck197" type="truck_truck" depart="151.34" departLane="best" from="-48466947#10" to="48566403"/>
    <trip id="truck198" type="truck_truck" depart="152.11" departLane="best" from="174136961#1" to="575288084#0"/>
    <trip id="truck199" type="truck_truck" depart="152.88" departLane="best" from="-22056993#1" to="1031656702"/>
    <trip id="truck200" type="truck_truck" depart="153.64" departLane="best" from="196854972#3" to="-17366325#1"/>
    <trip id="truck201" type="truck_truck" depart="154.41" departLane="best" from="-660532725#3" to="74310475#3"/>
    <trip id="truck202" type="truck_truck" depart="155.18" departLane="best" from="-132227040#0" to="70935310#2"/>
    <trip id="truck203" type="truck_truck" depart="155.95" departLane="best" from="-41601209#0" to="94401737#0"/>
    <trip id="truck204" type="truck_truck" depart="156.72" departLane="best" from="-23054005#0" to="856930611#1"/>
    <trip id="truck205" type="truck_truck" depart="157.48" departLane="best" from="5008797#2" to="191172830#1"/>
    <trip id="truck206" type="truck_truck" depart="158.25" departLane="best" from="72713072#10" to="20614586#4"/>
    <trip id="truck207" type="truck_truck" depart="159.02" departLane="best" from="16286780#5" to="-691289334#4"/>
    <trip id="truck208" type="truck_truck" depart="159.79" departLane="best" from="-646825822" to="-646825822"/>
    <trip id="truck209" type="truck_truck" depart="160.56" departLane="best" from="629177224#11" to="197336403#2"/>
    <trip id="truck210" type="truck_truck" depart="161.33" departLane="best" departSpeed="max" from="265397452#0" to="-70935303#4"/>
    <trip id="truck211" type="truck_truck" depart="162.09" departLane="best" from="-199292049#2" to="71961792#0"/>
    <trip id="truck212" type="truck_truck" depart="162.86" departLane="best" from="71220021#0" to="-74523668#2"/>
    <trip id="truck214" type="truck_truck" depart="164.40" departLane="best" from="-542888742#7" to="-48566248#1"/>
    <trip id="truck215" type="truck_truck" depart="165.17" departLane="best" from="48566461#1" to="191171868#3"/>
    <trip id="truck216" type="truck_truck" depart="165.94" departLane="best" departSpeed="max" from="-957498807#1" to="20612533"/>
    <trip id="truck217" type="truck_truck" depart="166.70" departLane="best" from="-987936181#1" to="-48466947#11"/>
    <trip id="truck218" type="truck_truck" depart="167.47" departLane="best" from="1031656700" to="80602905#0"/>
    <trip id="truck219" type="truck_truck" depart="168.24" departLane="best" from="-22762630#8" to="48566360#8"/>
    <trip id="truck220" type="truck_truck" depart="169.01" departLane="best" from="630306073#4" to="630306073#4"/>
    <trip id="truck221" type="truck_truck" depart="169.78" departLane="best" from="82636848#2" to="1031689106"/>
    <trip id="truck222" type="truck_truck" depart="170.54" departLane="best" from="-80624535#1" to="-621463438#3"/>
    <trip id="truck223" type="truck_truck" depart="171.31" departLane="best" from="74310485#4" to="87416837#2"/>
    <trip id="truck224" type="truck_truck" depart="172.08" departLane="best" from="1028601786" to="-542888743"/>
    <trip id="truck225" type="truck_truck" depart="172.85" departLane="best" departSpeed="max" from="20614573#0" to="-243133902#6"/>
    <trip id="truck226" type="truck_truck" depart="173.62" departLane="best" from="-70879989" to="-4995409#3"/>
    <trip id="truck227" type="truck_truck" depart="174.39" departLane="best" from="-1112305983" to="-14643189#4"/>
    <trip id="truck228" type="truck_truck" depart="175.15" departLane="best" departSpeed="max" from="-80201116#1" to="-47707315#9"/>
    <trip id="truck229" type="truck_truck" depart="175.92" departLane="best" from="-926660676#2" to="26808164#4"/>
    <trip id="truck230" type="truck_truck" depart="176.69" departLane="best" from="156822522" to="-22895525#6"/>
    <trip id="truck231" type="truck_truck" depart="177.46" departLane="best" from="263475701#0" to="132227040#0"/>
    <trip id="truck232" type="truck_truck" depart="178.23" departLane="best" from="-87758521#0" to="22056966#10"/>
    <trip id="truck233" type="truck_truck" depart="178.99" departLane="best" from="14645796#3" to="371796472#4"/>
    <trip id="truck234" type="truck_truck" depart="179.76" departLane="best" from="243133902#2" to="14645797#0"/>
    <trip id="truck235" type="truck_truck" depart="180.53" departLane="best" from="-178348838#0" to="-81591068#1"/>
    <trip id="truck236" type="truck_truck" depart="181.30" departLane="best" departSpeed="max" from="-5007529" to="75901677#1"/>
    <trip id="truck237" type="truck_truck" depart="182.07" departLane="best" from="622646270#0" to="-81591068#1"/>
    <trip id="truck238" type="truck_truck" depart="182.84" departLane="best" from="-542424891#5" to="73850665#1"/>
    <trip id="truck239" type="truck_truck" depart="183.60" departLane="best" from="-696710724#0" to="-199292121"/>
    <trip id="truck240" type="truck_truck" depart="184.37" departLane="best" from="-114194006" to="20608184#1"/>
    <trip id="truck241" type="truck_truck" depart="185.14" departLane="best" from="987936181#0" to="-80203006#4"/>
    <trip id="truck242" type="truck_truck" depart="185.91" departLane="best" from="-354892139" to="696688171#2"/>
    <trip id="truck243" type="truck_truck" depart="186.68" departLane="best" from="361062193#1" to="622632051#1"/>
    <trip id="truck244" type="truck_truck" depart="187.45" departLane="best" from="82677622#4" to="-47707315#3"/>
    <trip id="truck245" type="truck_truck" depart="188.21" departLane="best" from="114197671#1" to="263478933#0"/>
    <trip id="truck246" type="truck_truck" depart="188.98" departLane="best" from="-22895538#5" to="47008155#0"/>