<?xml version="1.0" encoding="UTF-8"?>

<!-- generated on 2023-02-19 19:05:27.757751 by osmWebWizard.py v1_15_0+0002-e6790248698
<configuration>
    <allow-fringe.min-length value="1000.0"/>
    <end value="3600"/>
    <fringe-factor value="5"/>
    <fringe-start-attributes value="departSpeed=&quot;max&quot;"/>
    <insertion-density value="12.0"/>
    <lanes value="True"/>
    <min-distance.fringe value="10.0"/>
    <min-distance value="300.0"/>
    <net-file value="C:\Users\gueye\Sumo\2023-02-19-18-57-45\osm.net.xml.gz"/>
    <remove-loops value="True"/>
    <route-file value="C:\Users\gueye\Sumo\2023-02-19-18-57-45\osm.passenger.rou.xml"/>
    <trip-attributes value="departLane=&quot;best&quot;"/>
    <output-trip-file value="C:\Users\gueye\Sumo\2023-02-19-18-57-45\osm.passenger.trips.xml"/>
    <prefix value="veh"/>
    <validate value="True"/>
    <vehicle-class value="passenger"/>
</configuration>
-->

<!-- generated on 2023-02-19 19:05:09 by Eclipse SUMO duarouter Version 1.15.0
<configuration xmlns:xsi="http://www.w3.org/2001/XMLSchema-instance" xsi:noNamespaceSchemaLocation="http://sumo.dlr.de/xsd/duarouterConfiguration.xsd">

    <input>
        <net-file value="C:\Users\gueye\Sumo\2023-02-19-18-57-45\osm.net.xml.gz"/>
        <route-files value="C:\Users\gueye\Sumo\2023-02-19-18-57-45\osm.passenger.trips.xml"/>
    </input>

    <output>
        <output-file value="C:\Users\gueye\Sumo\2023-02-19-18-57-45\osm.passenger.trips.xml.tmp"/>
        <alternatives-output value="NUL"/>
        <write-trips value="true"/>
    </output>

    <processing>
        <remove-loops value="true"/>
    </processing>

    <time>
        <begin value="0"/>
        <end value="3600"/>
    </time>

    <report>
        <no-warnings value="true"/>
        <ignore-errors value="true"/>
        <no-step-log value="true"/>
    </report>

</configuration>
-->

<routes xmlns:xsi="http://www.w3.org/2001/XMLSchema-instance" xsi:noNamespaceSchemaLocation="http://sumo.dlr.de/xsd/routes_file.xsd">
    <vType id="veh_passenger" vClass="passenger"/>
    <trip id="veh0" type="veh_passenger" depart="0.00" departLane="best" from="270440786" to="-114194005#8"/>
    <trip id="veh1" type="veh_passenger" depart="0.51" departLane="best" departSpeed="max" from="-71601357#1" to="-4997046#1"/>
    <trip id="veh3" type="veh_passenger" depart="1.54" departLane="best" from="-80201129#0" to="199292049#1"/>
    <trip id="veh4" type="veh_passenger" depart="2.05" departLane="best" from="-1099611752#9" to="-14643189#0"/>
    <trip id="veh5" type="veh_passenger" depart="2.56" departLane="best" from="-50655177#1" to="-191741590#1"/>
    <trip id="veh6" type="veh_passenger" depart="3.07" departLane="best" from="-14643200#1" to="-47008154#1"/>
    <trip id="veh7" type="veh_passenger" depart="3.59" departLane="best" from="354892144#0" to="20614578#1"/>
    <trip id="veh8" type="veh_passenger" depart="4.10" departLane="best" from="50655180#0" to="22812516#3"/>
    <trip id="veh9" type="veh_passenger" depart="4.61" departLane="best" from="-71205596#0" to="1031689109#0"/>
    <trip id="veh10" type="veh_passenger" depart="5.12" departLane="best" from="70935303#5" to="70935303#5"/>
    <trip id="veh11" type="veh_passenger" depart="5.63" departLane="best" from="-80602903" to="-243182901#2"/>
    <trip id="veh12" type="veh_passenger" depart="6.15" departLane="best" from="-87700957#1" to="-80201118"/>
    <trip id="veh13" type="veh_passenger" depart="6.66" departLane="best" from="-20614573#2" to="-20612535#0"/>
    <trip id="veh14" type="veh_passenger" depart="7.17" departLane="best" from="74212383#1" to="23359701#0"/>
    <trip id="veh15" type="veh_passenger" depart="7.68" departLane="best" from="70935308" to="533755196#1"/>
    <trip id="veh16" type="veh_passenger" depart="8.19" departLane="best" from="20608183#5" to="902056426"/>
    <trip id="veh17" type="veh_passenger" depart="8.71" departLane="best" departSpeed="max" from="-876200224#1" to="207342653#2"/>
    <trip id="veh18" type="veh_passenger" depart="9.22" departLane="best" from="25441289#0" to="25441289#0"/>
    <trip id="veh19" type="veh_passenger" depart="9.73" departLane="best" from="-74523668#8" to="22057030#2"/>
    <trip id="veh20" type="veh_passenger" depart="10.24" departLane="best" from="-48566423#1" to="-16286815"/>
    <trip id="veh21" type="veh_passenger" depart="10.76" departLane="best" from="538778386#0" to="-72713036#0"/>
    <trip id="veh22" type="veh_passenger" depart="11.27" departLane="best" from="-197347727" to="533828109#4"/>
    <trip id="veh23" type="veh_passenger" depart="11.78" departLane="best" from="-207348735#4" to="-71205596#0"/>
    <trip id="veh24" type="veh_passenger" depart="12.29" departLane="best" from="265803951#0" to="-81528831#4"/>
    <trip id="veh25" type="veh_passenger" depart="12.80" departLane="best" from="82636848#4" to="-48347377#1"/>
    <trip id="veh26" type="veh_passenger" depart="13.32" departLane="best" from="-70935303#5" to="82629203"/>
    <trip id="veh27" type="veh_passenger" depart="13.83" departLane="best" from="243167820#3" to="243167820#3"/>
    <trip id="veh28" type="veh_passenger" depart="14.34" departLane="best" from="-371796472#5" to="533379865#2"/>
    <trip id="veh29" type="veh_passenger" depart="14.85" departLane="best" from="-27467272#5" to="-82629207"/>
    <trip id="veh30" type="veh_passenger" depart="15.36" departLane="best" from="929290506" to="30919895#3"/>
    <trip id="veh31" type="veh_passenger" depart="15.88" departLane="best" from="21802773#1" to="477905606#3"/>
    <trip id="veh32" type="veh_passenger" depart="16.39" departLane="best" from="74203921#2" to="646491208#0"/>
    <trip id="veh33" type="veh_passenger" depart="16.90" departLane="best" from="-14645795#3" to="-14645795#3"/>
    <trip id="veh34" type="veh_passenger" depart="17.41" departLane="best" from="-75901682#0" to="-70794469#2"/>
    <trip id="veh35" type="veh_passenger" depart="17.93" departLane="best" from="-49697244#3" to="82677677#1"/>
    <trip id="veh36" type="veh_passenger" depart="18.44" departLane="best" from="76351533#2" to="74523668#2"/>
    <trip id="veh37" type="veh_passenger" depart="18.95" departLane="best" from="-372154871#1" to="892385827"/>
    <trip id="veh38" type="veh_passenger" depart="19.46" departLane="best" departSpeed="max" from="80608172" to="161650650"/>
    <trip id="veh39" type="veh_passenger" depart="19.97" departLane="best" from="70935297#0" to="575288084#0"/>
    <trip id="veh40" type="veh_passenger" depart="20.49" departLane="best" from="-21812289#2" to="-70410368#1"/>
    <trip id="veh41" type="veh_passenger" depart="21.00" departLane="best" from="22762630#5" to="80352299"/>
    <trip id="veh43" type="veh_passenger" depart="22.02" departLane="best" from="196637993#0" to="196637993#0"/>
    <trip id="veh44" type="veh_passenger" depart="22.53" departLane="best" from="20611645#1" to="16361951#3"/>
    <trip id="veh45" type="veh_passenger" depart="23.05" departLane="best" from="22056966#0" to="265297558#0"/>
    <trip id="veh46" type="veh_passenger" depart="23.56" departLane="best" from="-696710724#1" to="107245678#2"/>
    <trip id="veh47" type="veh_passenger" depart="24.07" departLane="best" from="-191172140#2" to="82677627"/>
    <trip id="veh48" type="veh_passenger" depart="24.58" departLane="best" departSpeed="max" from="199292127#3" to="199292127#3"/>
    <trip id="veh49" type="veh_passenger" depart="25.10" departLane="best" from="893426054#0" to="74523668#1"/>
    <trip id="veh50" type="veh_passenger" depart="25.61" departLane="best" from="652258548" to="20608183#0"/>
    <trip id="veh51" type="veh_passenger" depart="26.12" departLane="best" from="70935303#4" to="-32067761#1"/>
    <trip id="veh52" type="veh_passenger" depart="26.63" departLane="best" from="-22056977#3" to="-112892789#0"/>
    <trip id="veh53" type="veh_passenger" depart="27.14" departLane="best" from="-14645796#0" to="87645826"/>
    <trip id="veh54" type="veh_passenger" depart="27.66" departLane="best" from="76281482#2" to="-70410369#2"/>
    <trip id="veh55" type="veh_passenger" depart="28.17" departLane="best" from="191172182#0" to="-32067761#0"/>
    <trip id="veh56" type="veh_passenger" depart="28.68" departLane="best" from="80604433#3" to="75901679"/>
    <trip id="veh57" type="veh_passenger" depart="29.19" departLane="best" from="-74212380#0" to="303532560"/>
    <trip id="veh58" type="veh_passenger" depart="29.70" departLane="best" from="-243167820#4" to="-243167822#6"/>
    <trip id="veh59" type="veh_passenger" depart="30.22" departLane="best" from="60644115#0" to="20611639#7"/>
    <trip id="veh60" type="veh_passenger" depart="30.73" departLane="best" from="646814079#0" to="-199901193#3"/>
    <trip id="veh61" type="veh_passenger" depart="31.24" departLane="best" from="1006730649#0" to="-76279497"/>
    <trip id="veh62" type="veh_passenger" depart="31.75" departLane="best" from="-114017878#7" to="-114017878#7"/>
    <trip id="veh63" type="veh_passenger" depart="32.27" departLane="best" from="-78250607" to="-72713039#4"/>
    <trip id="veh64" type="veh_passenger" depart="32.78" departLane="best" from="-74507087" to="-17366383#0"/>
    <trip id="veh65" type="veh_passenger" depart="33.29" departLane="best" from="-78248865#2" to="87410498#0"/>
    <trip id="veh66" type="veh_passenger" depart="33.80" departLane="best" from="20606824#2" to="178310957#0"/>
    <trip id="veh67" type="veh_passenger" depart="34.31" departLane="best" departSpeed="max" from="621463438#0" to="621463438#0"/>
    <trip id="veh68" type="veh_passenger" depart="34.83" departLane="best" from="-622632054#3" to="22762537#3"/>
    <trip id="veh69" type="veh_passenger" depart="35.34" departLane="best" from="16361956#2" to="20614983#8"/>
    <trip id="veh70" type="veh_passenger" depart="35.85" departLane="best" from="70935297#1" to="75902179#1"/>
    <trip id="veh71" type="veh_passenger" depart="36.36" departLane="best" from="1112305984#0" to="48466947#15"/>
    <trip id="veh72" type="veh_passenger" depart="36.87" departLane="best" from="20611645#0" to="533755196#1"/>
    <trip id="veh73" type="veh_passenger" depart="37.39" departLane="best" from="-48466947#14" to="-74505111#2"/>
    <trip id="veh74" type="veh_passenger" depart="37.90" departLane="best" from="965124966#0" to="37934398#0"/>
    <trip id="veh75" type="veh_passenger" depart="38.41" departLane="best" from="114194009#3" to="197335672#11"/>
    <trip id="veh76" type="veh_passenger" depart="38.92" departLane="best" from="22338488#1" to="-5007352#0"/>
    <trip id="veh77" type="veh_passenger" depart="39.44" departLane="best" from="-80497987#1" to="22812333#1"/>
    <trip id="veh78" type="veh_passenger" depart="39.95" departLane="best" from="-541164735#0" to="-49697244#0"/>
    <trip id="veh79" type="veh_passenger" depart="40.46" departLane="best" from="-193282546" to="-265600491#1"/>
    <trip id="veh80" type="veh_passenger" depart="40.97" departLane="best" from="80602906#1" to="80602906#1"/>
    <trip id="veh81" type="veh_passenger" depart="41.48" departLane="best" from="-74523667#2" to="-191172140#3"/>
    <trip id="veh82" type="veh_passenger" depart="42.00" departLane="best" departSpeed="max" from="-56181610#6" to="4369033#2"/>
    <trip id="veh83" type="veh_passenger" depart="42.51" departLane="best" from="-5002662#0" to="-22762631#6"/>
    <trip id="veh84" type="veh_passenger" depart="43.02" departLane="best" from="22056977#8" to="22056977#8"/>
    <trip id="veh85" type="veh_passenger" depart="43.53" departLane="best" from="16361949#1" to="-691289334#1"/>
    <trip id="veh86" type="veh_passenger" depart="44.04" departLane="best" departSpeed="max" from="70935310#0" to="-41601199#1"/>
    <trip id="veh87" type="veh_passenger" depart="44.56" departLane="best" from="-20614983#6" to="1121868639#0"/>
    <trip id="veh88" type="veh_passenger" depart="45.07" departLane="best" from="1112308897" to="16286787#1"/>
    <trip id="veh89" type="veh_passenger" depart="45.58" departLane="best" from="533171262#1" to="47008153#2"/>
    <trip id="veh90" type="veh_passenger" depart="46.09" departLane="best" from="926664562#0" to="20614573#2"/>
    <trip id="veh91" type="veh_passenger" depart="46.61" departLane="best" from="1003929910" to="-80201131"/>
    <trip id="veh92" type="veh_passenger" depart="47.12" departLane="best" from="-74523668#7" to="622632054#0"/>
    <trip id="veh93" type="veh_passenger" depart="47.63" departLane="best" departSpeed="max" from="-47705551" to="114254501#9"/>
    <trip id="veh94" type="veh_passenger" depart="48.14" departLane="best" from="1099611752#9" to="-71220021#0"/>
    <trip id="veh95" type="veh_passenger" depart="48.65" departLane="best" from="-646814079#1" to="81585363"/>
    <trip id="veh96" type="veh_passenger" depart="49.17" departLane="best" from="114254501#13" to="74523668#12"/>
    <trip id="veh97" type="veh_passenger" depart="49.68" departLane="best" from="20616424" to="71228724#5"/>
    <trip id="veh98" type="veh_passenger" depart="50.19" departLane="best" from="-987933713" to="-72713077#2"/>
    <trip id="veh99" type="veh_passenger" depart="50.70" departLane="best" departSpeed="max" from="892385827" to="81637719#0"/>
    <trip id="veh100" type="veh_passenger" depart="51.21" departLane="best" from="74212961" to="-265590370"/>
    <trip id="veh101" type="veh_passenger" depart="51.73" departLane="best" departSpeed="max" from="174136961#0" to="48566147#2"/>
    <trip id="veh102" type="veh_passenger" depart="52.24" departLane="best" departSpeed="max" from="-174136961#0" to="-174136961#0"/>
    <trip id="veh103" type="veh_passenger" depart="52.75" departLane="best" departSpeed="max" from="-876200224#1" to="927188021#0"/>
    <trip id="veh104" type="veh_passenger" depart="53.26" departLane="best" from="70935297#2" to="666633182#0"/>
    <trip id="veh105" type="veh_passenger" depart="53.78" departLane="best" from="14645797#4" to="-1090596657"/>
    <trip id="veh107" type="veh_passenger" depart="54.80" departLane="best" from="-263475701#3" to="-72714612#2"/>
    <trip id="veh108" type="veh_passenger" depart="55.31" departLane="best" from="892385826#1" to="22338484#0"/>
    <trip id="veh109" type="veh_passenger" depart="55.82" departLane="best" departSpeed="max" from="20614573#0" to="541164734#0"/>
    <trip id="veh110" type="veh_passenger" depart="56.34" departLane="best" from="191171273" to="22762540#6"/>
    <trip id="veh111" type="veh_passenger" depart="56.85" departLane="best" from="191628560#2" to="-74310485#12"/>
    <trip id="veh112" type="veh_passenger" depart="57.36" departLane="best" from="-265378448#1" to="884890355#0"/>
    <trip id="veh113" type="veh_passenger" depart="57.87" departLane="best" from="-19787438#1" to="-393260103#2"/>
    <trip id="veh114" type="veh_passenger" depart="58.38" departLane="best" from="229209068#5" to="47443258"/>
    <trip id="veh115" type="veh_passenger" depart="58.90" departLane="best" from="-542888742#5" to="-22057001#2"/>
    <trip id="veh116" type="veh_passenger" depart="59.41" departLane="best" from="-80201122#0" to="56181610#5"/>
    <trip id="veh117" type="veh_passenger" depart="59.92" departLane="best" from="229209068#0" to="25441289#6"/>
    <trip id="veh118" type="veh_passenger" depart="60.43" departLane="best" from="1094326791#1" to="22762539#2"/>
    <trip id="veh119" type="veh_passenger" depart="60.95" departLane="best" from="197347307#7" to="82317592"/>
    <trip id="veh120" type="veh_passenger" depart="61.46" departLane="best" departSpeed="max" from="-48566147#8" to="5008638#4"/>
    <trip id="veh121" type="veh_passenger" depart="61.97" departLane="best" departSpeed="max" from="-56181612#2" to="-892385827"/>
    <trip id="veh122" type="veh_passenger" depart="62.48" departLane="best" from="43517457#0" to="-74202461#4"/>
    <trip id="veh123" type="veh_passenger" depart="62.99" departLane="best" departSpeed="max" from="-75901682#1" to="-542424891#2"/>
    <trip id="veh124" type="veh_passenger" depart="63.51" departLane="best" from="-196637993#17" to="156822522"/>
    <trip id="veh125" type="veh_passenger" depart="64.02" departLane="best" from="-196637993#22" to="-48466947#7"/>
    <trip id="veh126" type="veh_passenger" depart="64.53" departLane="best" from="-70935297#2" to="-70935297#2"/>
    <trip id="veh127" type="veh_passenger" depart="65.04" departLane="best" from="78714765" to="-78363498#1"/>
    <trip id="veh128" type="veh_passenger" depart="65.55" departLane="best" from="-82636848#0" to="25441290#2"/>
    <trip id="veh129" type="veh_passenger" depart="66.07" departLane="best" from="72713072#10" to="-49697614#0"/>
    <trip id="veh130" type="veh_passenger" depart="66.58" departLane="best" from="929290507" to="929290507"/>
    <trip id="veh131" type="veh_passenger" depart="67.09" departLane="best" from="371796472#7" to="371796472#7"/>
    <trip id="veh132" type="veh_passenger" depart="67.60" departLane="best" from="71851121#3" to="71851121#3"/>
    <trip id="veh133" type="veh_passenger" depart="68.12" departLane="best" from="41601194#5" to="82636848#2"/>
    <trip id="veh134" type="veh_passenger" depart="68.63" departLane="best" from="-22895538#1" to="-22056966#5"/>
    <trip id="veh135" type="veh_passenger" depart="69.14" departLane="best" from="-21812267#0" to="207348735#0"/>
    <trip id="veh136" type="veh_passenger" depart="69.65" departLane="best" from="71220021#2" to="23370192#1"/>
    <trip id="veh137" type="veh_passenger" depart="70.16" departLane="best" from="5008638#10" to="47707315#15"/>
    <trip id="veh138" type="veh_passenger" depart="70.68" departLane="best" from="265590376#1" to="-70418321#1"/>
    <trip id="veh139" type="veh_passenger" depart="71.19" departLane="best" from="178310957#0" to="80602906#1"/>
    <trip id="veh140" type="veh_passenger" depart="71.70" departLane="best" from="-74212367#0" to="-20608179#0"/>
    <trip id="veh141" type="veh_passenger" depart="72.21" departLane="best" from="1112308897" to="-71197238#2"/>
    <trip id="veh142" type="veh_passenger" depart="72.72" departLane="best" from="-1031656701#1" to="629566169#6"/>
    <trip id="veh143" type="veh_passenger" depart="73.24" departLane="best" departSpeed="max" from="265919877" to="-696987745"/>
    <trip id="veh144" type="veh_passenger" depart="73.75" departLane="best" from="538744100#13" to="20618822"/>
    <trip id="veh145" type="veh_passenger" depart="74.26" departLane="best" from="1121868642" to="-104016028"/>
    <trip id="veh146" type="veh_passenger" depart="74.77" departLane="best" from="-197335659#0" to="79568260#4"/>
    <trip id="veh147" type="veh_passenger" depart="75.29" departLane="best" departSpeed="max" from="80497988" to="20614578#2"/>
    <trip id="veh148" type="veh_passenger" depart="75.80" departLane="best" from="-72713072#2" to="22762537#2"/>
    <trip id="veh149" type="veh_passenger" depart="76.31" departLane="best" from="-22338490#2" to="-22338490#2"/>
    <trip id="veh150" type="veh_passenger" depart="76.82" departLane="best" from="74508909#4" to="80497984#2"/>
    <trip id="veh151" type="veh_passenger" depart="77.33" departLane="best" from="-70726939#1" to="74523668#0"/>
    <trip id="veh152" type="veh_passenger" depart="77.85" departLane="best" from="80203511#1" to="-48466900#1"/>
    <trip id="veh153" type="veh_passenger" depart="78.36" departLane="best" from="-646493154#3" to="20614983#7"/>
    <trip id="veh154" type="veh_passenger" depart="78.87" departLane="best" from="652258561#3" to="-79623946#0"/>
    <trip id="veh155" type="veh_passenger" depart="79.38" departLane="best" from="1031656697" to="-263475697#11"/>
    <trip id="veh156" type="veh_passenger" depart="79.89" departLane="best" from="-263475701#2" to="-263475701#2"/>
    <trip id="veh157" type="veh_passenger" depart="80.41" departLane="best" from="74898079#2" to="907866332"/>
    <trip id="veh158" type="veh_passenger" depart="80.92" departLane="best" from="71220021#0" to="78735560"/>
    <trip id="veh159" type="veh_passenger" depart="81.43" departLane="best" from="-132227040#1" to="538063665#3"/>
    <trip id="veh160" type="veh_passenger" depart="81.94" departLane="best" departSpeed="max" from="-80201128#1" to="-80201128#1"/>
    <trip id="veh161" type="veh_passenger" depart="82.46" departLane="best" from="70882157#2" to="74892376#3"/>
    <trip id="veh162" type="veh_passenger" depart="82.97" departLane="best" from="71220021#0" to="70794465"/>
    <trip id="veh163" type="veh_passenger" depart="83.48" departLane="best" from="915505309#0" to="-209977258#1"/>
    <trip id="veh164" type="veh_passenger" depart="83.99" departLane="best" from="76131666" to="74505111#0"/>
    <trip id="veh165" type="veh_passenger" depart="84.50" departLane="best" from="532963378#0" to="71851121#2"/>
    <trip id="veh166" type="veh_passenger" depart="85.02" departLane="best" from="-16286765#3" to="-74212961"/>
    <trip id="veh167" type="veh_passenger" depart="85.53" departLane="best" from="70418324#1" to="-50655177#3"/>
    <trip id="veh168" type="veh_passenger" depart="86.04" departLane="best" from="-12149919#0" to="41601209#4"/>
    <trip id="veh169" type="veh_passenger" depart="86.55" departLane="best" from="-79629217#0" to="74895115#0"/>
    <trip id="veh170" type="veh_passenger" depart="87.06" departLane="best" from="884902693#0" to="-71223025"/>
    <trip id="veh171" type="veh_passenger" depart="87.58" departLane="best" from="-27467272#3" to="902042531#2"/>
    <trip id="veh172" type="veh_passenger" depart="88.09" departLane="best" from="915505309#0" to="-20608179#0"/>
    <trip id="veh173" type="veh_passenger" depart="88.60" departLane="best" from="82317596#2" to="-22056966#5"/>
    <trip id="veh174" type="veh_passenger" depart="89.11" departLane="best" from="893426051#3" to="-32067761#0"/>
    <trip id="veh175" type="veh_passenger" depart="89.63" departLane="best" from="88114118#3" to="-70726940"/>
    <trip id="veh176" type="veh_passenger" depart="90.14" departLane="best" from="-21812298#3" to="112596203"/>
    <trip id="veh177" type="veh_passenger" depart="90.65" departLane="best" from="243133902#1" to="196637993#21"/>
    <trip id="veh178" type="veh_passenger" depart="91.16" departLane="best" from="-88114118#2" to="22057023#1"/>
    <trip id="veh179" type="veh_passenger" depart="91.67" departLane="best" from="-696710724#0" to="5007358"/>
    <trip id="veh180" type="veh_passenger" depart="92.19" departLane="best" from="102615112#1" to="81637718#2"/>
    <trip id="veh181" type="veh_passenger" depart="92.70" departLane="best" from="20611641#3" to="-5008842"/>
    <trip id="veh182" type="veh_passenger" depart="93.21" departLane="best" from="538744100#16" to="459876320#3"/>
    <trip id="veh183" type="veh_passenger" depart="93.72" departLane="best" departSpeed="max" from="-191171904#1" to="-191171904#1"/>
    <trip id="veh184" type="veh_passenger" depart="94.23" departLane="best" from="41601196#0" to="-78735555#0"/>
    <trip id="veh185" type="veh_passenger" depart="94.75" departLane="best" from="-75901677#17" to="74212386"/>
    <trip id="veh186" type="veh_passenger" depart="95.26" departLane="best" from="5008797#2" to="74212347#0"/>
    <trip id="veh187" type="veh_passenger" depart="95.77" departLane="best" from="-74523668#10" to="-74523668#10"/>
    <trip id="veh188" type="veh_passenger" depart="96.28" departLane="best" from="987936181#0" to="-72714608#3"/>
    <trip id="veh189" type="veh_passenger" depart="96.80" departLane="best" from="-22762631#6" to="1033760113"/>
    <trip id="veh190" type="veh_passenger" depart="97.31" departLane="best" from="82317607" to="82317607"/>
    <trip id="veh191" type="veh_passenger" depart="97.82" departLane="best" departSpeed="max" from="80497986" to="24586922#2"/>
    <trip id="veh192" type="veh_passenger" depart="98.33" departLane="best" from="-74310475#3" to="20614586#6"/>
    <trip id="veh193" type="veh_passenger" depart="98.84" departLane="best" from="-1006729252#0" to="-72051039#1"/>
    <trip id="veh194" type="veh_passenger" depart="99.36" departLane="best" from="-112595539#0" to="-22338488#0"/>
    <trip id="veh195" type="veh_passenger" depart="99.87" departLane="best" from="372154870#1" to="16286780#0"/>
    <trip id="veh196" type="veh_passenger" depart="100.38" departLane="best" from="114254501#0" to="-48566147#2"/>
    <trip id="veh197" type="veh_passenger" depart="100.89" departLane="best" from="16361950" to="80588246#5"/>
    <trip id="veh198" type="veh_passenger" depart="101.40" departLane="best" from="-70726939#1" to="-265803953#2"/>
    <trip id="veh199" type="veh_passenger" depart="101.92" departLane="best" from="-201845511#2" to="197335663#0"/>
    <trip id="veh200" type="veh_passenger" depart="102.43" departLane="best" from="265590375#2" to="-80201117"/>
    <trip id="veh201" type="veh_passenger" depart="102.94" departLane="best" from="71892231#0" to="541887618"/>
    <trip id="veh202" type="veh_passenger" depart="103.45" departLane="best" from="435287624" to="-5007352#0"/>
    <trip id="veh203" type="veh_passenger" depart="103.97" departLane="best" from="-48466173#1" to="114194005#3"/>
    <trip id="veh204" type="veh_passenger" depart="104.48" departLane="best" from="-628220615#2" to="16361956#1"/>
    <trip id="veh205" type="veh_passenger" depart="104.99" departLane="best" from="74220910#0" to="-191629097#2"/>
    <trip id="veh206" type="veh_passenger" depart="105.50" departLane="best" departSpeed="max" from="104016028" to="265590375#4"/>
    <trip id="veh207" type="veh_passenger" depart="106.01" departLane="best" from="-477905606#0" to="-48566227#1"/>
    <trip id="veh208" type="veh_passenger" depart="106.53" departLane="best" from="-191170303#1" to="-542888742#6"/>
    <trip id="veh209" type="veh_passenger" depart="107.04" departLane="best" from="-372154871#4" to="1031656708"/>
    <trip id="veh210" type="veh_passenger" depart="107.55" departLane="best" from="541155617#1" to="629566169#1"/>
    <trip id="veh211" type="veh_passenger" depart="108.06" departLane="best" from="-21812258#3" to="1096044331#2"/>
    <trip id="veh212" type="veh_passenger" depart="108.57" departLane="best" departSpeed="max" from="880204315#1" to="880204315#1"/>
    <trip id="veh213" type="veh_passenger" depart="109.09" departLane="best" from="197335675#10" to="16361962#6"/>
    <trip id="veh214" type="veh_passenger" depart="109.60" departLane="best" departSpeed="max" from="74212959#1" to="74212959#1"/>
    <trip id="veh215" type="veh_passenger" depart="110.11" departLane="best" from="-150181246#0" to="70882157#0"/>
    <trip id="veh216" type="veh_passenger" depart="110.62" departLane="best" from="41601202" to="935095224#0"/>
    <trip id="veh217" type="veh_passenger" depart="111.14" departLane="best" from="229209068#8" to="87443948#1"/>
    <trip id="veh218" type="veh_passenger" depart="111.65" departLane="best" from="-80201126#1" to="-243182901#3"/>
    <trip id="veh219" type="veh_passenger" depart="112.16" departLane="best" from="5008777#1" to="191741589#2"/>
    <trip id="veh220" type="veh_passenger" depart="112.67" departLane="best" from="72713030#1" to="20614586#6"/>
    <trip id="veh221" type="veh_passenger" depart="113.18" departLane="best" from="80202473#0" to="538779676#1"/>
    <trip id="veh222" type="veh_passenger" depart="113.70" departLane="best" from="-16361953#1" to="-660949185#3"/>
    <trip id="veh223" type="veh_passenger" depart="114.21" departLane="best" from="630306072" to="289286693#2"/>
    <trip id="veh224" type="veh_passenger" depart="114.72" departLane="best" from="-622632054#3" to="197347297#0"/>
    <trip id="veh225" type="veh_passenger" depart="115.23" departLane="best" from="263478933#6" to="-70935306#3"/>
    <trip id="veh226" type="veh_passenger" depart="115.74" departLane="best" from="-197336403#2" to="71966038#0"/>
    <trip id="veh227" type="veh_passenger" depart="116.26" departLane="best" from="-71205596#3" to="-75146126"/>
    <trip id="veh228" type="veh_passenger" depart="116.77" departLane="best" from="20612533" to="22895535#0"/>
    <trip id="veh229" type="veh_passenger" depart="117.28" departLane="best" from="-541174271#2" to="48566147#8"/>
    <trip id="veh230" type="veh_passenger" depart="117.79" departLane="best" from="49697614#0" to="-191171267#3"/>
    <trip id="veh231" type="veh_passenger" depart="118.31" departLane="best" from="1031656702" to="20612539#1"/>
    <trip id="veh232" type="veh_passenger" depart="118.82" departLane="best" from="1071979334" to="-477905606#7"/>
    <trip id="veh233" type="veh_passenger" depart="119.33" departLane="best" from="1096044331#0" to="80602904#3"/>
    <trip id="veh234" type="veh_passenger" depart="119.84" departLane="best" from="22762630#11" to="22762630#11"/>
    <trip id="veh235" type="veh_passenger" depart="120.35" departLane="best" from="-74505105#0" to="-622787789#4"/>
    <trip id="veh236" type="veh_passenger" depart="120.87" departLane="best" departSpeed="max" from="-87645826" to="-87645826"/>
    <trip id="veh237" type="veh_passenger" depart="121.38" departLane="best" from="-81528832" to="542888742#3"/>
    <trip id="veh238" type="veh_passenger" depart="121.89" departLane="best" from="74310485#6" to="876203133#1"/>
    <trip id="veh239" type="veh_passenger" depart="122.40" departLane="best" from="1094326393#0" to="541155617#3"/>
    <trip id="veh240" type="veh_passenger" depart="122.91" departLane="best" from="20614586#1" to="-23115878#1"/>
    <trip id="veh241" type="veh_passenger" depart="123.43" departLane="best" from="50655180#1" to="-48566423#0"/>
    <trip id="veh242" type="veh_passenger" depart="123.94" departLane="best" from="-114017878#2" to="-132333461"/>
    <trip id="veh243" type="veh_passenger" depart="124.45" departLane="best" from="-802554897#3" to="47705551"/>
    <trip id="veh244" type="veh_passenger" depart="124.96" departLane="best" from="1016646803#4" to="-265397454"/>
    <trip id="veh245" type="veh_passenger" depart="125.48" departLane="best" from="-16286788#0" to="22338490#4"/>