<?xml version="1.0" encoding="UTF-8"?>

<!-- generated on 2023-02-19 19:05:28.567496 by osmWebWizard.py v1_15_0+0002-e6790248698
<configuration>
    <end value="3600"/>
    <fringe-factor value="1"/>
    <insertion-density value="10.0"/>
    <max-distance value="2000.0"/>
    <net-file value="C:\Users\gueye\Sumo\2023-02-19-18-57-45\osm.net.xml.gz"/>
    <pedestrians value="True"/>
    <route-file value="C:\Users\gueye\Sumo\2023-02-19-18-57-45\osm.pedestrian.rou.xml"/>
    <output-trip-file value="C:\Users\gueye\Sumo\2023-02-19-18-57-45\osm.pedestrian.trips.xml"/>
    <prefix value="ped"/>
    <vehicle-class value="pedestrian"/>
</configuration>
-->

<routes xmlns:xsi="http://www.w3.org/2001/XMLSchema-instance" xsi:noNamespaceSchemaLocation="http://sumo.dlr.de/xsd/routes_file.xsd">
    <vType id="ped_pedestrian" vClass="pedestrian"/>
    <person id="ped0" depart="0.00" type="ped_pedestrian">
        <walk from="273640562#1" to="-1108478222"/>
    </person>
    <person id="ped1" depart="0.49" type="ped_pedestrian">
        <walk from="78363479" to="-190846177#2"/>
    </person>
    <person id="ped2" depart="0.97" type="ped_pedestrian">
        <walk from="70935298#0" to="-102979603"/>
    </person>
    <person id="ped3" depart="1.46" type="ped_pedestrian">
        <walk from="-80202715" to="-243167822#0"/>
    </person>
    <person id="ped4" depart="1.95" type="ped_pedestrian">
        <walk from="-191171903#1" to="-191915830#2"/>
    </person>
    <person id="ped5" depart="2.43" type="ped_pedestrian">
        <walk from="708727194" to="537775366#1"/>
    </person>
    <person id="ped6" depart="2.92" type="ped_pedestrian">
        <walk from="738932303" to="20614983#9"/>
    </person>
    <person id="ped7" depart="3.41" type="ped_pedestrian">
        <walk from="-533335365" to="-71228724#0"/>
    </person>
    <person id="ped8" depart="3.89" type="ped_pedestrian">
        <walk from="314914739#1" to="238076985#1"/>
    </person>
    <person id="ped9" depart="4.38" type="ped_pedestrian">
        <walk from="-263475701#0" to="-87690922"/>
    </person>
    <person id="ped10" depart="4.87" type="ped_pedestrian">
        <walk from="201168454#2" to="47707315#2"/>
    </person>
    <person id="ped11" depart="5.36" type="ped_pedestrian">
        <walk from="-533754592#0" to="-113142042"/>
    </person>
    <person id="ped12" depart="5.84" type="ped_pedestrian">
        <walk from="-628220615#1" to="-542228698#1"/>
    </person>
    <person id="ped13" depart="6.33" type="ped_pedestrian">
        <walk from="202007140#0" to="-622632057#2"/>
    </person>
    <person id="ped14" depart="6.82" type="ped_pedestrian">
        <walk from="21876218#1" to="79251367"/>
    </person>
    <person id="ped15" depart="7.30" type="ped_pedestrian">
        <walk from="-994884921#1" to="-5008777#0"/>
    </person>
    <person id="ped16" depart="7.79" type="ped_pedestrian">
        <walk from="-151568364#6" to="-87747202#1"/>
    </person>
    <person id="ped17" depart="8.28" type="ped_pedestrian">
        <walk from="-1033638142#5" to="533171096#2"/>
    </person>
    <person id="ped18" depart="8.76" type="ped_pedestrian">
        <walk from="-202007984#2" to="1098046947"/>
    </person>
    <person id="ped19" depart="9.25" type="ped_pedestrian">
        <walk from="1102346438" to="87416837#2"/>
    </person>
    <person id="ped20" depart="9.74" type="ped_pedestrian">
        <walk from="151352678" to="-315159521#1"/>
    </person>
    <person id="ped21" depart="10.22" type="ped_pedestrian">
        <walk from="804964893" to="74505096#0"/>
    </person>
    <person id="ped22" depart="10.71" type="ped_pedestrian">
        <walk from="238076980" to="-238076988#2"/>
    </person>
    <person id="ped23" depart="11.20" type="ped_pedestrian">
        <walk from="542888302" to="191171904#0"/>
    </person>
    <person id="ped24" depart="11.68" type="ped_pedestrian">
        <walk from="-100035153#5" to="-75902568"/>
    </person>
    <person id="ped25" depart="12.17" type="ped_pedestrian">
        <walk from="-1071979329" to="81637718#1"/>
    </person>
    <person id="ped26" depart="12.66" type="ped_pedestrian">
        <walk from="-738910759#2" to="-150176599#1"/>
    </person>
    <person id="ped27" depart="13.14" type="ped_pedestrian">
        <walk from="74948646#0" to="839716772#0"/>
    </person>
    <person id="ped28" depart="13.63" type="ped_pedestrian">
        <walk from="575247304#2" to="-21803819"/>
    </person>
    <person id="ped29" depart="14.12" type="ped_pedestrian">
        <walk from="114015701#6" to="197347307#4"/>
    </person>
    <person id="ped30" depart="14.60" type="ped_pedestrian">
        <walk from="-628220615#3" to="74508909#6"/>
    </person>
    <person id="ped31" depart="15.09" type="ped_pedestrian">
        <walk from="191171903#2" to="538063665#0"/>
    </person>
    <person id="ped32" depart="15.58" type="ped_pedestrian">
        <walk from="1098067580" to="16361962#6"/>
    </person>
    <person id="ped33" depart="16.07" type="ped_pedestrian">
        <walk from="-80201130" to="22056972#3"/>
    </person>
    <person id="ped34" depart="16.55" type="ped_pedestrian">
        <walk from="-533953926#0" to="-5008797#5"/>
    </person>
    <person id="ped35" depart="17.04" type="ped_pedestrian">
        <walk from="-538779341" to="432580579#3"/>
    </person>
    <person id="ped36" depart="17.53" type="ped_pedestrian">
        <walk from="-5002684#2" to="-21876230#0"/>
    </person>
    <person id="ped37" depart="18.01" type="ped_pedestrian">
        <walk from="82629217#0" to="20608184#1"/>
    </person>
    <person id="ped38" depart="18.50" type="ped_pedestrian">
        <walk from="70881094#0" to="-41601209#10"/>
    </person>
    <person id="ped39" depart="18.99" type="ped_pedestrian">
        <walk from="-191917865#0" to="1086613560"/>
    </person>
    <person id="ped40" depart="19.47" type="ped_pedestrian">
        <walk from="537708732#1" to="458865768#0"/>
    </person>
    <person id="ped41" depart="19.96" type="ped_pedestrian">
        <walk from="101817279#0" to="-80201732#1"/>
    </person>
    <person id="ped42" depart="20.45" type="ped_pedestrian">
        <walk from="-41601200#1" to="1099644104#0"/>
    </person>
    <person id="ped43" depart="20.93" type="ped_pedestrian">
        <walk from="103806614" to="-681412358"/>
    </person>
    <person id="ped44" depart="21.42" type="ped_pedestrian">
        <walk from="880133024#0" to="81539622#0"/>
    </person>
    <person id="ped45" depart="21.91" type="ped_pedestrian">
        <walk from="738810539" to="-265590374"/>
    </person>
    <person id="ped46" depart="22.39" type="ped_pedestrian">
        <walk from="1014904294#1" to="-150176607"/>
    </person>
    <person id="ped47" depart="22.88" type="ped_pedestrian">
        <walk from="-87646116" to="958460239"/>
    </person>
    <person id="ped48" depart="23.37" type="ped_pedestrian">
        <walk from="1102350588" to="103821643"/>
    </person>
    <person id="ped49" depart="23.85" type="ped_pedestrian">
        <walk from="-243167819#1" to="-72051039#0"/>
    </person>
    <person id="ped50" depart="24.34" type="ped_pedestrian">
        <walk from="879223008#0" to="207348742"/>
    </person>
    <person id="ped51" depart="24.83" type="ped_pedestrian">
        <walk from="-150176592#0" to="21812298#0"/>
    </person>
    <person id="ped52" depart="25.31" type="ped_pedestrian">
        <walk from="151352690#0" to="738906167#1"/>
    </person>
    <person id="ped53" depart="25.80" type="ped_pedestrian">
        <walk from="22338489#0" to="459626001#1"/>
    </person>
    <person id="ped54" depart="26.29" type="ped_pedestrian">
        <walk from="77009347" to="-542172606#0"/>
    </person>
    <person id="ped55" depart="26.78" type="ped_pedestrian">
        <walk from="1033580751" to="21812267#2"/>
    </person>
    <person id="ped56" depart="27.26" type="ped_pedestrian">
        <walk from="17366325#5" to="82629204#2"/>
    </person>
    <person id="ped57" depart="27.75" type="ped_pedestrian">
        <walk from="-477905606#3" to="532963371"/>
    </person>
    <person id="ped58" depart="28.24" type="ped_pedestrian">
        <walk from="-16361951#2" to="-4995526#3"/>
    </person>
    <person id="ped59" depart="28.72" type="ped_pedestrian">
        <walk from="75238042#1" to="75151638#1"/>
    </person>
    <person id="ped60" depart="29.21" type="ped_pedestrian">
        <walk from="71915918#2" to="5007504#1"/>
    </person>
    <person id="ped61" depart="29.70" type="ped_pedestrian">
        <walk from="411120341#0" to="82677666"/>
    </person>
    <person id="ped62" depart="30.18" type="ped_pedestrian">
        <walk from="-22056980#1" to="-20606824#0"/>
    </person>
    <person id="ped63" depart="30.67" type="ped_pedestrian">
        <walk from="533127464#8" to="-477905606#1"/>
    </person>
    <person id="ped64" depart="31.16" type="ped_pedestrian">
        <walk from="541176237#3" to="19827480#0"/>
    </person>
    <person id="ped65" depart="31.64" type="ped_pedestrian">
        <walk from="1047650732" to="-1033551663#1"/>
    </person>
    <person id="ped66" depart="32.13" type="ped_pedestrian">
        <walk from="80201129#1" to="196637993#19"/>
    </person>
    <person id="ped67" depart="32.62" type="ped_pedestrian">
        <walk from="71915928#0" to="21812218#1"/>
    </person>
    <person id="ped68" depart="33.10" type="ped_pedestrian">
        <walk from="-230054060" to="-209977258#6"/>
    </person>
    <person id="ped69" depart="33.59" type="ped_pedestrian">
        <walk from="-738917894#1" to="79623950"/>
    </person>
    <person id="ped70" depart="34.08" type="ped_pedestrian">
        <walk from="660949183" to="738919015#0"/>
    </person>
    <person id="ped71" depart="34.56" type="ped_pedestrian">
        <walk from="79623949#3" to="-48566395#1"/>
    </person>
    <person id="ped72" depart="35.05" type="ped_pedestrian">
        <walk from="-542234215#0" to="-19787438#0"/>
    </person>
    <person id="ped73" depart="35.54" type="ped_pedestrian">
        <walk from="1028667568" to="245091966#1"/>
    </person>
    <person id="ped74" depart="36.02" type="ped_pedestrian">
        <walk from="-243167818#1" to="81637796#2"/>
    </person>
    <person id="ped75" depart="36.51" type="ped_pedestrian">
        <walk from="-1102383266#2" to="538977201#2"/>
    </person>
    <person id="ped76" depart="37.00" type="ped_pedestrian">
        <walk from="-78749121" to="81705430#0"/>
    </person>
    <person id="ped77" depart="37.49" type="ped_pedestrian">
        <walk from="70410369#0" to="74203912"/>
    </person>
    <person id="ped78" depart="37.97" type="ped_pedestrian">
        <walk from="70935307#1" to="-629215113#3"/>
    </person>
    <person id="ped79" depart="38.46" type="ped_pedestrian">
        <walk from="639106322#0" to="-201337551#0"/>
    </person>
    <person id="ped80" depart="38.95" type="ped_pedestrian">
        <walk from="1108478224#1" to="-738810539"/>
    </person>
    <person id="ped81" depart="39.43" type="ped_pedestrian">
        <walk from="929290506" to="191171274"/>
    </person>
    <person id="ped82" depart="39.92" type="ped_pedestrian">
        <walk from="87690921" to="-628983984#1"/>
    </person>
    <person id="ped83" depart="40.41" type="ped_pedestrian">
        <walk from="-201337552#1" to="1098046944"/>
    </person>
    <person id="ped84" depart="40.89" type="ped_pedestrian">
        <walk from="23115869#0" to="16286780#3"/>
    </person>
    <person id="ped85" depart="41.38" type="ped_pedestrian">
        <walk from="-88114129#7" to="20614983#0"/>
    </person>
    <person id="ped86" depart="41.87" type="ped_pedestrian">
        <walk from="-542401655#1" to="50655180#1"/>
    </person>
    <person id="ped87" depart="42.35" type="ped_pedestrian">
        <walk from="-74310475#0" to="738805092#1"/>
    </person>
    <person id="ped88" depart="42.84" type="ped_pedestrian">
        <walk from="-209977258#4" to="1033760111"/>
    </person>
    <person id="ped89" depart="43.33" type="ped_pedestrian">
        <walk from="82717238#0" to="460550575"/>
    </person>
    <person id="ped90" depart="43.81" type="ped_pedestrian">
        <walk from="80201124#0" to="243167822#1"/>
    </person>
    <person id="ped91" depart="44.30" type="ped_pedestrian">
        <walk from="363686188#0" to="1121868636"/>
    </person>
    <person id="ped92" depart="44.79" type="ped_pedestrian">
        <walk from="113860195" to="79630614#1"/>
    </person>
    <person id="ped93" depart="45.27" type="ped_pedestrian">
        <walk from="-186257199#1" to="16361950"/>
    </person>
    <person id="ped94" depart="45.76" type="ped_pedestrian">
        <walk from="265590376#0" to="-79630286#0"/>
    </person>
    <person id="ped95" depart="46.25" type="ped_pedestrian">
        <walk from="71613634" to="542173645#0"/>
    </person>
    <person id="ped96" depart="46.73" type="ped_pedestrian">
        <walk from="458865764#1" to="-529959761"/>
    </person>
    <person id="ped97" depart="47.22" type="ped_pedestrian">
        <walk from="-470593603#2" to="-1102383265"/>
    </person>
    <person id="ped98" depart="47.71" type="ped_pedestrian">
        <walk from="-459439377#0" to="48566461#2"/>
    </person>
    <person id="ped99" depart="48.20" type="ped_pedestrian">
        <walk from="365612257#1" to="-1028668081"/>
    </person>
    <person id="ped100" depart="48.68" type="ped_pedestrian">
        <walk from="-314914732" to="876088087"/>
    </person>
    <person id="ped101" depart="49.17" type="ped_pedestrian">
        <walk from="-542233799#1" to="738805095"/>
    </person>
    <person id="ped102" depart="49.66" type="ped_pedestrian">
        <walk from="41601209#7" to="961719344"/>
    </person>
    <person id="ped103" depart="50.14" type="ped_pedestrian">
        <walk from="533161970#1" to="156781006"/>
    </person>
    <person id="ped104" depart="50.63" type="ped_pedestrian">
        <walk from="-542229610#2" to="266538978"/>
    </person>
    <person id="ped105" depart="51.12" type="ped_pedestrian">
        <walk from="575247304#2" to="173593495"/>
    </person>
    <person id="ped106" depart="51.60" type="ped_pedestrian">
        <walk from="-171660425#5" to="-70935301#1"/>
    </person>
    <person id="ped107" depart="52.09" type="ped_pedestrian">
        <walk from="-660495318#3" to="-74834339"/>
    </person>
    <person id="ped108" depart="52.58" type="ped_pedestrian">
        <walk from="-533966836#1" to="48566227#2"/>
    </person>
    <person id="ped109" depart="53.06" type="ped_pedestrian">
        <walk from="5008777#1" to="-156945447"/>
    </person>
    <person id="ped110" depart="53.55" type="ped_pedestrian">
        <walk from="1033638145#0" to="80201643#5"/>
    </person>
    <person id="ped111" depart="54.04" type="ped_pedestrian">
        <walk from="21812289#3" to="48566395#1"/>
    </person>
    <person id="ped112" depart="54.52" type="ped_pedestrian">
        <walk from="738913384#0" to="575247300"/>
    </person>
    <person id="ped113" depart="55.01" type="ped_pedestrian">
        <walk from="196637993#4" to="229209083#3"/>
    </person>
    <person id="ped114" depart="55.50" type="ped_pedestrian">
        <walk from="-50655176" to="-5008777#1"/>
    </person>
    <person id="ped115" depart="55.98" type="ped_pedestrian">
        <walk from="1098046954" to="-1121868639#0"/>
    </person>
    <person id="ped116" depart="56.47" type="ped_pedestrian">
        <walk from="-801718561" to="47008152#3"/>
    </person>
    <person id="ped117" depart="56.96" type="ped_pedestrian">
        <walk from="24655037" to="-1121866929#0"/>
    </person>
    <person id="ped118" depart="57.45" type="ped_pedestrian">
        <walk from="-22056996#0" to="111596341#1"/>
    </person>
    <person id="ped119" depart="57.93" type="ped_pedestrian">
        <walk from="-49697244#2" to="-76351533#0"/>
    </person>
    <person id="ped120" depart="58.42" type="ped_pedestrian">
        <walk from="542421534" to="-87689632#1"/>
    </person>
    <person id="ped121" depart="58.91" type="ped_pedestrian">
        <walk from="-1070362011" to="191171904#0"/>
    </person>
    <person id="ped122" depart="59.39" type="ped_pedestrian">
        <walk from="314915724" to="629219030"/>
    </person>
    <person id="ped123" depart="59.88" type="ped_pedestrian">
        <walk from="315164771" to="542233799#1"/>
    </person>
    <person id="ped124" depart="60.37" type="ped_pedestrian">
        <walk from="-1086613560" to="-238076986#0"/>
    </person>
    <person id="ped125" depart="60.85" type="ped_pedestrian">
        <walk from="202291587#17" to="-5008632#3"/>
    </person>
    <person id="ped126" depart="61.34" type="ped_pedestrian">
        <walk from="4995409#2" to="575255319"/>
    </person>
    <person id="ped127" depart="61.83" type="ped_pedestrian">
        <walk from="-265600489" to="23115875#2"/>
    </person>
    <person id="ped128" depart="62.31" type="ped_pedestrian">
        <walk from="541600517" to="-202680716#1"/>
    </person>
    <person id="ped129" depart="62.80" type="ped_pedestrian">
        <walk from="71851121#2" to="87744048#1"/>
    </person>
    <person id="ped130" depart="63.29" type="ped_pedestrian">
        <walk from="532958618" to="-171222379#1"/>
    </person>
    <person id="ped131" depart="63.77" type="ped_pedestrian">
        <walk from="48467212#2" to="263132621#1"/>
    </person>
    <person id="ped132" depart="64.26" type="ped_pedestrian">
        <walk from="-197347307#0" to="599241728#1"/>
    </person>
    <person id="ped133" depart="64.75" type="ped_pedestrian">
        <walk from="738898252" to="22895529#6"/>
    </person>
    <person id="ped134" depart="65.23" type="ped_pedestrian">
        <walk from="629987412#0" to="-80602902#1"/>
    </person>
    <person id="ped135" depart="65.72" type="ped_pedestrian">
        <walk from="1053364126" to="-839709938#0"/>
    </person>
    <person id="ped136" depart="66.21" type="ped_pedestrian">
        <walk from="156822522" to="-802430114"/>
    </person>
    <person id="ped137" depart="66.69" type="ped_pedestrian">
        <walk from="738898246#2" to="71898259#8"/>
    </person>
    <person id="ped138" depart="67.18" type="ped_pedestrian">
        <walk from="-199292121" to="87646115"/>
    </person>
    <person id="ped139" depart="67.67" type="ped_pedestrian">
        <walk from="265803949#1" to="71914352#5"/>
    </person>
    <person id="ped140" depart="68.16" type="ped_pedestrian">
        <walk from="5008799#0" to="1098046951#0"/>
    </person>
    <person id="ped141" depart="68.64" type="ped_pedestrian">
        <walk from="538744100#0" to="87747196#1"/>
    </person>
    <person id="ped142" depart="69.13" type="ped_pedestrian">
        <walk from="1098046951#1" to="538519976#4"/>
    </person>
    <person id="ped143" depart="69.62" type="ped_pedestrian">
        <walk from="-630688086#1" to="738906160"/>
    </person>
    <person id="ped144" depart="70.10" type="ped_pedestrian">
        <walk from="71914363#0" to="-190846169#1"/>
    </person>
    <person id="ped145" depart="70.59" type="ped_pedestrian">
        <walk from="1121868633" to="238843929"/>
    </person>
    <person id="ped146" depart="71.08" type="ped_pedestrian">
        <walk from="738900270#3" to="-365320385#4"/>
    </person>
    <person id="ped147" depart="71.56" type="ped_pedestrian">
        <walk from="-49697615#4" to="660962756#2"/>
    </person>
    <person id="ped148" depart="72.05" type="ped_pedestrian">
        <walk from="-80203511#0" to="75238038#7"/>
    </person>
    <person id="ped149" depart="72.54" type="ped_pedestrian">
        <walk from="5002662#1" to="-660949179#0"/>
    </person>
    <person id="ped150" depart="73.02" type="ped_pedestrian">
        <walk from="-1033555988#0" to="857569263#2"/>
    </person>
    <person id="ped151" depart="73.51" type="ped_pedestrian">
        <walk from="48467212#2" to="307432105#0"/>
    </person>
    <person id="ped152" depart="74.00" type="ped_pedestrian">
        <walk from="132333463" to="660909453"/>
    </person>
    <person id="ped153" depart="74.48" type="ped_pedestrian">
        <walk from="-191171904#1" to="-50655178#6"/>
    </person>
    <person id="ped154" depart="74.97" type="ped_pedestrian">
        <walk from="48566147#0" to="-738898248"/>
    </person>
    <person id="ped155" depart="75.46" type="ped_pedestrian">
        <walk from="21803816#1" to="113860197#0"/>
    </person>
    <person id="ped156" depart="75.94" type="ped_pedestrian">
        <walk from="190795858#1" to="104057026#0"/>
    </person>
    <person id="ped157" depart="76.43" type="ped_pedestrian">
        <walk from="-542263801" to="-20614573#2"/>
    </person>
    <person id="ped158" depart="76.92" type="ped_pedestrian">
        <walk from="-44098781#2" to="-20612533"/>
    </person>
    <person id="ped159" depart="77.40" type="ped_pedestrian">
        <walk from="191171267#2" to="542424891#5"/>
    </person>
    <person id="ped160" depart="77.89" type="ped_pedestrian">
        <walk from="-382712682#3" to="-5007502"/>
    </person>
    <person id="ped161" depart="78.38" type="ped_pedestrian">
        <walk from="-70794470" to="-197335673#1"/>
    </person>
    <person id="ped162" depart="78.87" type="ped_pedestrian">
        <walk from="-339143851#0" to="-103809814"/>
    </person>
    <person id="ped163" depart="79.35" type="ped_pedestrian">
        <walk from="190853398" to="-660909461"/>
    </person>
    <person id="ped164" depart="79.84" type="ped_pedestrian">
        <walk from="890773466#0" to="199291197#1"/>
    </person>
    <person id="ped165" depart="80.33" type="ped_pedestrian">
        <walk from="48566559#1" to="-208638934#1"/>
    </person>
    <person id="ped166" depart="80.81" type="ped_pedestrian">
        <walk from="74523668#10" to="20614573#4"/>
    </person>
    <person id="ped167" depart="81.30" type="ped_pedestrian">
        <walk from="1132454054" to="1098081136#1"/>
    </person>
    <person id="ped168" depart="81.79" type="ped_pedestrian">
        <walk from="82718415#1" to="114192128#2"/>
    </person>
    <person id="ped169" depart="82.27" type="ped_pedestrian">
        <walk from="-14643196#0" to="-23054008#2"/>
    </person>
    <person id="ped170" depart="82.76" type="ped_pedestrian">
        <walk from="202169800" to="-738805090#0"/>
    </person>
    <person id="ped171" depart="83.25" type="ped_pedestrian">
        <walk from="660542234#2" to="-532379541#1"/>
    </person>
    <person id="ped172" depart="83.73" type="ped_pedestrian">
        <walk from="17366325#14" to="1099647053#1"/>
    </person>
    <person id="ped173" depart="84.22" type="ped_pedestrian">
        <walk from="965010804" to="-73881355#0"/>
    </person>
    <person id="ped174" depart="84.71" type="ped_pedestrian">
        <walk from="24655031#3" to="238076988#2"/>
    </person>
    <person id="ped175" depart="85.19" type="ped_pedestrian">
        <walk from="540808700#1" to="856478936#0"/>
    </person>
    <person id="ped176" depart="85.68" type="ped_pedestrian">
        <walk from="-48566186" to="-48566461#3"/>
    </person>
    <person id="ped177" depart="86.17" type="ped_pedestrian">
        <walk from="384171952#7" to="-243182901#3"/>
    </person>
    <person id="ped178" depart="86.65" type="ped_pedestrian">
        <walk from="22338485#2" to="-71600023#3"/>
    </person>
    <person id="ped179" depart="87.14" type="ped_pedestrian">
        <walk from="-533966837" to="5008797#3"/>
    </person>
    <person id="ped180" depart="87.63" type="ped_pedestrian">
        <walk from="639106325#1" to="262184179"/>
    </person>
    <person id="ped181" depart="88.11" type="ped_pedestrian">
        <walk from="104057020" to="193223319#1"/>
    </person>
    <person id="ped182" depart="88.60" type="ped_pedestrian">
        <walk from="314914738#0" to="802554898#1"/>
    </person>
    <person id="ped183" depart="89.09" type="ped_pedestrian">
        <walk from="71904874#3" to="-16286803#3"/>
    </person>
    <person id="ped184" depart="89.58" type="ped_pedestrian">
        <walk from="-265590368" to="-738910759#3"/>
    </person>
    <person id="ped185" depart="90.06" type="ped_pedestrian">
        <walk from="541895001" to="20606827#0"/>
    </person>
    <person id="ped186" depart="90.55" type="ped_pedestrian">
        <walk from="-71205596#4" to="-20615462#1"/>
    </person>
    <person id="ped187" depart="91.04" type="ped_pedestrian">
        <walk from="837439763" to="151352676"/>
    </person>
    <person id="ped188" depart="91.52" type="ped_pedestrian">
        <walk from="-114192128#1" to="1094286848#0"/>
    </person>
    <person id="ped189" depart="92.01" type="ped_pedestrian">
        <walk from="-191171762#1" to="876655706"/>
    </person>
    <person id="ped190" depart="92.50" type="ped_pedestrian">
        <walk from="860151152#0" to="994884922"/>
    </person>
    <person id="ped191" depart="92.98" type="ped_pedestrian">
        <walk from="458860707" to="-634639987#0"/>
    </person>
    <person id="ped192" depart="93.47" type="ped_pedestrian">
        <walk from="113586346#3" to="315159521#2"/>
    </person>
    <person id="ped193" depart="93.96" type="ped_pedestrian">
        <walk from="80602899#7" to="-365320385#0"/>
    </person>
    <person id="ped194" depart="94.44" type="ped_pedestrian">
        <walk from="21876225#3" to="265755592"/>
    </person>
    <person id="ped195" depart="94.93" type="ped_pedestrian">
        <walk from="136991955" to="-191171762#0"/>
    </person>
    <person id="ped196" depart="95.42" type="ped_pedestrian">
        <walk from="-80602907#1" to="-79623948"/>
    </person>
    <person id="ped197" depart="95.90" type="ped_pedestrian">
        <walk from="43633674#2" to="738917886#0"/>
    </person>
    <person id="ped198" depart="96.39" type="ped_pedestrian">
        <walk from="71220005#1" to="197347307#8"/>
    </person>
    <person id="ped199" depart="96.88" type="ped_pedestrian">
        <walk from="1102350587" to="-74310483#1"/>
    </person>
    <person id="ped200" depart="97.36" type="ped_pedestrian">
        <walk from="-75901928#1" to="880670852#0"/>
    </person>
    <person id="ped201" depart="97.85" type="ped_pedestrian">
        <walk from="961905285" to="372154871#0"/>
    </person>
    <person id="ped202" depart="98.34" type="ped_pedestrian">
        <walk from="-41502126" to="-82629204#1"/>
    </person>
    <person id="ped203" depart="98.82" type="ped_pedestrian">
        <walk from="542263801" to="262192009"/>
    </person>
    <person id="ped204" depart="99.31" type="ped_pedestrian">
        <walk from="197347304#5" to="81580746#0"/>
    </person>
    <person id="ped205" depart="99.80" type="ped_pedestrian">
        <walk from="1098067580" to="495186713#1"/>
    </person>
    <person id="ped206" depart="100.29" type="ped_pedestrian">
        <walk from="-20614575#5" to="88292189"/>
    </person>
    <person id="ped207" depart="100.77" type="ped_pedestrian">
        <walk from="238076976" to="-539463945#0"/>
    </person>
    <person id="ped208" depart="101.26" type="ped_pedestrian">
        <walk from="-24655031#5" to="19795421#0"/>
    </person>
    <person id="ped209" depart="101.75" type="ped_pedestrian">
        <walk from="96863407#8" to="804964896"/>
    </person>
    <person id="ped210" depart="102.23" type="ped_pedestrian">
        <walk from="111596339" to="-20608183#5"/>
    </person>
    <person id="ped211" depart="102.72" type="ped_pedestrian">
        <walk from="71914374#2" to="150176606#1"/>
    </person>
    <person id="ped212" depart="103.21" type="ped_pedestrian">
        <walk from="19795421#5" to="-880204314"/>
    </person>
    <person id="ped213" depart="103.69" type="ped_pedestrian">
        <walk from="813657505#0" to="16286764#0"/>
    </person>
    <person id="ped214" depart="104.18" type="ped_pedestrian">
        <walk from="75225249" to="74203912"/>
    </person>
    <person id="ped215" depart="104.67" type="ped_pedestrian">
        <walk from="-660949179#0" to="659778853"/>
    </person>
    <person id="ped216" depart="105.15" type="ped_pedestrian">
        <walk from="159990385#0" to="71892231#4"/>
    </person>
    <person id="ped217" depart="105.64" type="ped_pedestrian">
        <walk from="-70794466" to="-72713036#3"/>
    </person>
    <person id="ped218" depart="106.13" type="ped_pedestrian">
        <walk from="220204208" to="994884917"/>
    </person>
    <person id="ped219" depart="106.61" type="ped_pedestrian">
        <walk from="132227038" to="-23054006#1"/>
    </person>
    <person id="ped220" depart="107.10" type="ped_pedestrian">
        <walk from="199290493" to="191915830#1"/>
    </person>
    <person id="ped221" depart="107.59" type="ped_pedestrian">
        <walk from="-41601194#4" to="48566559#2"/>
    </person>
    <person id="ped222" depart="108.07" type="ped_pedestrian">
        <walk from="710994065#1" to="-88222122"/>
    </person>
    <person id="ped223" depart="108.56" type="ped_pedestrian">
        <walk from="926668984#0" to="14645796#0"/>
    </person>
    <person id="ped224" depart="109.05" type="ped_pedestrian">
        <walk from="22056996#1" to="74310485#2"/>
    </person>
    <person id="ped225" depart="109.54" type="ped_pedestrian">
        <walk from="74525229#2" to="1098081135#1"/>
    </person>
    <person id="ped226" depart="110.02" type="ped_pedestrian">
        <walk from="178311330#1" to="1102368556"/>
    </person>
    <person id="ped227" depart="110.51" type="ped_pedestrian">
        <walk from="533331333#2" to="102877890#6"/>
    </person>
    <person id="ped228" depart="111.00" type="ped_pedestrian">
        <walk from="363686188#1" to="-243165761#0"/>
    </person>
    <person id="ped229" depart="111.48" type="ped_pedestrian">
        <walk from="113445218" to="880147629"/>
    </person>
    <person id="ped230" depart="111.97" type="ped_pedestrian">