<?xml version="1.0" encoding="UTF-8"?>

<!-- generated on 2023-02-19 19:06:50.187312 by osmWebWizard.py v1_15_0+0002-e6790248698
<configuration>
    <end value="3600"/>
    <fringe-factor value="1"/>
    <insertion-density value="10.0"/>
    <max-distance value="2000.0"/>
    <net-file value="C:\Users\gueye\Sumo\2023-02-19-18-57-45\osm.net.xml.gz"/>
    <pedestrians value="True"/>
    <route-file value="C:\Users\gueye\Sumo\2023-02-19-18-57-45\osm.pedestrian.rou.xml"/>
    <output-trip-file value="C:\Users\gueye\Sumo\2023-02-19-18-57-45\osm.pedestrian.trips.xml"/>
    <prefix value="ped"/>
    <vehicle-class value="pedestrian"/>
</configuration>
-->

<!-- generated on 2023-02-19 19:05:31 by Eclipse SUMO duarouter Version 1.15.0
<configuration xmlns:xsi="http://www.w3.org/2001/XMLSchema-instance" xsi:noNamespaceSchemaLocation="http://sumo.dlr.de/xsd/duarouterConfiguration.xsd">

    <input>
        <net-file value="C:\Users\gueye\Sumo\2023-02-19-18-57-45\osm.net.xml.gz"/>
        <route-files value="C:\Users\gueye\Sumo\2023-02-19-18-57-45\osm.pedestrian.trips.xml"/>
    </input>

    <output>
        <output-file value="C:\Users\gueye\Sumo\2023-02-19-18-57-45\osm.pedestrian.rou.xml"/>
        <alternatives-output value="NUL"/>
    </output>

    <time>
        <begin value="0"/>
        <end value="3600"/>
    </time>

    <report>
        <no-warnings value="true"/>
        <ignore-errors value="true"/>
        <no-step-log value="true"/>
    </report>

</configuration>
-->

<routes xmlns:xsi="http://www.w3.org/2001/XMLSchema-instance" xsi:noNamespaceSchemaLocation="http://sumo.dlr.de/xsd/routes_file.xsd">
    <vType id="ped_pedestrian" vClass="pedestrian"/>
    <person id="ped0" type="ped_pedestrian" depart="0.00">
        <walk edges="273640562#1 -70876743#1 532947860 -538582741#0 -538582741#1 -538582741#2 -1071979329 -1041199872#0 -1041199872#1 -1041199872#2 -634639987#0 634664265#2 634664265#0 270477757#3 270477757#2 538590285 270477757#0 -78716111#1 -78716111#0 876203133#0 538599454 14645795#5 -14645795#4 -14645795#3 -14645795#2 857569275#0 -857569275#2 -906584131#1 -14645796#0 -14645796#1 190845805#0 -14645796#3 -1108478218 575289967 575289969 738933146 -1108478222"/>
    </person>
    <person id="ped1" type="ped_pedestrian" depart="0.49">
        <walk edges="78363479 -857569275#2 -906584131#1 -14645796#0 -14645796#1 190845805#0 14645796#3 14645797#0 14645797#1 14645797#2 -76351531#0 190846102 -190846177#2"/>
    </person>
    <person id="ped3" type="ped_pedestrian" depart="1.46">
        <walk edges="-80202715 22057030#3 22057038#2 -264902089#0 -264902089#1 -1031656707 25441286#5 25441286#4 25441286#3 25441286#2 25441286#1 25441286#0 25441289#7 25441289#6 25441289#5 -25441289#4 -25441289#3 -25441289#2 -25441289#0 1031656697 25441290#0 25441290#2 1031656698#0 1031656698#1 -243167822#0"/>
    </person>
    <person id="ped4" type="ped_pedestrian" depart="1.95">
        <walk edges="-191171903#1 -191171903#2 191171901#5 191171901#4 191171901#3 191171901#1 191171901#0 629605186#4 575288084#0 575288084#2 575288084#4 199292123 -75901928#2 -75901928#1 -75901928#0 629566169#0 629566169#1 629566169#3 629566169#4 629566169#5 191172182#0 -191915830#2"/>
    </person>
    <person id="ped5" type="ped_pedestrian" depart="2.43">
        <walk edges="708727194 -711245784 -575264197 575264198#0 533755199 628340592#1 628340592#0 533754590 202164692#0 202164692#1 -694543281#0 599233948#0 599233948#2 884902693#2 696681044#0 696681044#1 696681044#2 696683811#1 4995527#0 -191171868#3 -191171868#2 -191171868#1 -191171868#0 -4995526#7 -4995526#6 -21803816#0 622632048#0 622632054#4 622632054#3 622632054#2 622632054#1 622632054#0 191171267#3 191171267#2 191171267#1 191171267#0 71890970#0 5002662#1 5002662#0 1121867672 -243165761#0 -537775366#0 537775366#1"/>
    </person>
    <person id="ped6" type="ped_pedestrian" depart="2.92">
        <walk edges="738932303 542168912 542168669#1 542168669#0 191172488 23054006#5 23054006#4 23054006#2 -171660425#10 78363490 -78363492#0 78363500 -78363497 78363484 -171660425#2 78363491 -696688170#0 696688171#3 906584720 71915933#0 71915929#1 71914370#4 71914370#3 71904868#9 71904879#2 71904879#3 71914382 71914374#0 71915918#2 71915922 532960908 -112595539#1 -79623946#1 -79623946#0 -79623949#1 -79623949#0 541895379 962402517 -962402516#1 -79625263#0 802554898#3 802554898#4 802554895 -16361962#7 802554891 263475701#1 -20614575#5 -20614575#4 -20614575#3 -20614575#2 -20614575#1 -20614575#0 265803951#1 20614983#4 20614983#6 20614983#7 20614983#8 20614983#9"/>
    </person>
    <person id="ped8" type="ped_pedestrian" depart="3.89">
        <walk edges="314914739#1 -314914739#0 314914742#4 -533828109#1 199292203#0 629605186#0 629605186#2 629605186#4 575288085#0 575288085#2 575288085#3 1123696182#0 42712162#3 42712162#5 191170314#0 191170314#1 191170314#2 191170314#3 232884226#0 232884226#1 -1037180248#0 575295066 542168669#3 542168669#2 542168669#1 542168669#0 191172488 23054006#5 23054006#4 23054006#2 -171660425#10 78363490 -78363492#0 78363500 -78363497 78363484 -171660425#2 78363491 -696688170#0 696688171#3 906584720 71915933#0 71915929#1 71914370#4 71914370#3 71904868#9 71904879#2 71904879#3 71914382 71914374#0 71915918#2 71915922 532960908 112595539#1 79623946#1 112595538#1 112595538#0 -802554897#3 802554897#2 -79629217#0 79629212#7 -238076986#1 -238076986#0 -238076983 -238076989 238076985#1"/>
    </person>
    <person id="ped9" type="ped_pedestrian" depart="4.38">
        <walk edges="-263475701#0 -263475701#1 20614575#5 20614575#4 20614578#1 20614578#0 20614586#2 20614586#1 -41601212#2 -41601212#3 197347307#8 70935309 87416837#1 87416837#2 -87416837#3 -87416837#4 -87416837#5 -87416837#7 -87416837#9 243167822#2 243167822#1 243167822#0 78762025 -243167818#0 -243167818#1 -243167818#2 -243167819#0 -243167819#1 -243167819#2 197335663#0 197335663#1 197335663#2 265590372 71600023#3 -71600023#2 -71600023#0 71599403#0 71599403#1 265590377 -87690922"/>
    </person>
    <person id="ped10" type="ped_pedestrian" depart="4.87">
        <walk edges="201168454#2 -201168454#3 -73860368#1 -73860368#0 -264681379 538519976#5 819978577 -537772770#0 -193223319#2 193223319#0 -22338484#0 -22338484#1 289286693#0 22338488#0 22338488#1 22338488#2 22338488#3 22338487#1 22338487#2 -965010804 -48566227#2 -48566227#1 -48566227#0 197335673#1 197335673#2 197335673#4 -265590372 1098069015 78737006 1098069014#1 1098069013 78732403 1098069016 -87689632#1 -87689632#0 78746580 78746614 1098067576 1098067577 1098067578 1098067581 1098067579 1098067580 75140180 1098067575 1098067574 -47705108#1 -41601209#10 -41601209#8 -41601209#7 -41601209#6 80602900#0 80602900#1 -80602900#4 -80602900#5 -80602899#3 -80602899#4 -80602899#5 -80602899#7 -80602899#8 47707315#9 47707315#8 47707315#7 47707315#5 47707315#4 47707315#3 47707315#2"/>
    </person>
    <person id="ped11" type="ped_pedestrian" depart="5.36">
        <walk edges="-533754592#0 -711245784 -575264197 575264198#0 533755199 628340592#1 628340592#0 533754590 202164692#0 202164692#1 -694543281#0 599233948#0 599233948#2 884902693#2 696681044#0 696681044#1 696681044#2 696683811#1 884903847#1 199292203#0 629605186#0 629605186#2 629605186#4 575288085#0 575288085#2 575288085#3 1123696182#0 42712162#3 42712162#5 191170314#0 191170314#1 191170314#2 191170314#3 232884226#0 232884226#1 -1037180248#0 575295066 542168669#3 542168669#2 542168669#1 542168669#0 191172488 23054006#5 23054006#4 23054006#2 -171660425#10 78363490 -78363492#0 78363500 -78363497 78363484 -171660425#2 78363491 -696688170#0 696688171#3 906584720 71915933#0 71915929#1 71914370#4 71914370#3 71914370#2 71914370#1 1047651366#1 1047651366#0 1047651367 71915925 1047651368 71915917#1 -303867954 -113142043#3 -113142043#4 -16361949#0 -113142042"/>
    </person>
    <person id="ped12" type="ped_pedestrian" depart="5.84">
        <walk edges="-628220615#1 628220615#2 628220615#3 -243167822#1 243167822#0 78762025 -243167818#0 -243167818#1 -243167818#2 21812230#0 21812230#1 1144343527 43633674#2 43633674#1 43633674#0 -1033551664 -156822522 -1033551666 -5007476#1 -5007476#0 -71890970#1 -5002662#2 -5002662#0 1121867672 201845690#1 263478257 -681412358 -538519976#0 538519976#1 819978575 201845688 876655706 242316872#0 -71851121#0 -71851121#1 -71851121#2 -542228698#0 -542228698#1"/>
    </person>
    <person id="ped13" type="ped_pedestrian" depart="6.33">
        <walk edges="202007140#0 202007048#0 243168696#2 1099621594#5 1099621594#4 -72051041#10 -72051041#8 -72051041#6 -72051041#5 -72051041#4 -72051041#3 22762631#1 22762631#4 22762632#3 22762632#2 22762632#1 22762632#0 542424891#7 542424891#5 -1033555988#1 -1033555988#0 73860380#0 73860380#1 -1033555987 -73860374#1 -73860374#0 -22762537#1 -22762537#0 -537772770#1 -537772770#0 533165999 -74525639#0 -74525639#1 -74525639#2 199291196#3 1102368563 -199291146#5 -533954049#0 -819978579 -209977258#0 -209977258#1 -209977258#2 -209977258#3 -209977258#4 19832837 -5007521#0 -622632057#2"/>
    </person>
    <person id="ped14" type="ped_pedestrian" depart="6.82">
        <walk edges="21876218#1 -21876218#2 813657505#1 813657505#0 21876229#2 21876229#1 21876229#0 21812267#2 21812267#1 21812267#0 14645797#4 14645797#3 14645797#2 14645797#1 14645797#0 14645796#3 190845805#0 -14645796#1 -14645796#0 -906584131#1 -857569275#2 -857569275#1 -696688167#1 696688171#3 696688171#4 -174136961#2 174136961#1 79251367"/>
    </person>
    <person id="ped15" type="ped_pedestrian" depart="7.30">
        <walk edges="-994884921#1 994884921#0 -1033546853 -1014904297#0 1014904295#0 -1014904294#1 1014904294#0 -994884919#0 -193160700#1 994884917 994884914#2 994884915 994884914#0 994884916 190846217#1 994884913 21876229#0 21876229#1 21876229#2 21876229#3 477905082 -41601194#6 -41601194#5 41601194#4 41601194#3 41601194#2 41601194#1 41601194#0 5008777#1 -5008777#0"/>
    </person>
    <person id="ped16" type="ped_pedestrian" depart="7.79">
        <walk edges="-151568364#6 -150176611 -151568364#2 -151568364#0 151568366 -150176589#0 74212347#0 74212347#1 -74212386 74212361#1 -660671410 150343747#1 660671406#1 660671406#0 673848984#2 -538610023#4 -538610023#3 -538610023#2 -876105039#0 738917898#2 -738917898#1 -100035153#1 -100035153#2 -100035153#3 -100035153#4 -100035153#5 -629177227#2 -629177227#1 -629177227#0 -738919016 -1121870636#0 -711245784 -575264197 575264198#0 533755199 628340592#1 628340592#0 533754590 202164692#0 202164692#1 -694543281#0 599233948#0 599233948#2 884902693#2 696681044#0 696681044#1 696681044#2 696683811#1 4995527#0 -191171868#3 -191171868#2 -191171868#1 -191171868#0 -4995526#7 4995526#6 4995526#4 4995526#3 4995526#2 5008797#4 5008797#5 12149919#0 12149919#1 -186258676#3 -186258676#2 -186258676#1 -186258676#0 -538779676#1 538779676#0 533336765#5 533336765#2 533336765#1 -87747196#0 -87747196#1 -87747202#1"/>
    </person>
    <person id="ped17" type="ped_pedestrian" depart="8.28">
        <walk edges="-1033638142#5 -104057024#0 -104057024#1 -104057024#2 104057042#1 104057042#0 104057020 265590375#6 265590375#7 265590375#9 893426054#0 893426051#0 893426051#2 893426051#3 893426051#4 71599403#0 71599403#1 71599403#2 48566227#2 965010804 263476550#0 22338490#0 22338490#1 22338490#2 22338490#4 533127464#8 533170842 533171096#0 533171096#2"/>
    </person>
    <person id="ped18" type="ped_pedestrian" depart="8.76">
        <walk edges="-202007984#2 1099621591 1099621592 243168696#10 538979058#1 538979058#2 -27467272#7 -27467272#6 -27467272#5 -27467272#3 -27467272#2 27467272#1 27467272#0 304001570#1 -202291587#22 -202291587#23 -202291587#24 -22762537#7 -22762537#6 -22762537#5 23370192#5 23370192#7 23370192#8 -1121866934#0 876088074 876088069#0 876088069#2 876088072 533127464#5 -26808164#6 -26808164#5 70684148#1 70684152#2 70684152#1 70684153 48467212#3 60900287 48467209#3 48467209#2 48467209#1 48467209#8 48467211 22338490#0 263476550#0 965010804 48566227#2 48566227#1 48566227#0 197335673#1 197335673#2 197335673#4 -265590372 1098069015 78737006 1098069014#1 1098069013 78732403 1098069016 -87689632#1 -87689632#0 78746580 78746614 1098067576 1098067577 1098067578 1098067581 1098067579 1098067580 75140180 1098067575 1098067574 47705108#0 41601209#9 41601209#8 41601209#7 41601209#6 80608173 80608169#0 80608170#0 542169149 82636848#3 -82636848#2 -102615112#1 82629220#0 -191171762#5 -191171762#4 -191171762#2 -191171762#1 -191171762#0 -82629213 -191171761 82629204#1 82629204#0 621463438#4 621463438#3 -102469980#1 -102469980#2 -621466143#0 621466143#1 -102877893 1098046929 1098046930 229209081#3 229209081#2 229209081#1 102877895#2 102877895#3 102877895#4 102877887#3 1098046947"/>
    </person>
    <person id="ped19" type="ped_pedestrian" depart="9.25">
        <walk edges="1102346438 1102346439 1102346440 1102346441 1102346442 542172605#1 539286413 82636848#0 82636848#1 82636848#2 82636848#3 542169149 80608170#0 80608170#1 878883006#4 -878883006#3 -878883006#2 -878883006#1 243051020 -186257198#1 80602900#1 878883004#1 197347304#0 197347304#1 197347304#2 197347304#3 197347304#4 -197347304#5 -197347304#7 -533970865 -197347307#0 -197347307#1 -197347307#2 -197347307#3 -197347307#4 -197347307#5 197347307#7 -70935309 87416837#1 87416837#2"/>
    </person>
    <person id="ped20" type="ped_pedestrian" depart="9.74">
        <walk edges="151352678 -151352688#0 -151352689#2 50655180#0 50655180#1 -542888742#9 -542888742#8 542888742#7 542888742#6 542888742#5 70410369#1 70410369#0 22762632#2 315159519 -315159521#0 315159521#2 -315159521#1"/>
    </person>
    <person id="ped22" type="ped_pedestrian" depart="10.71">
        <walk edges="238076980 -540808700#4 -540808700#5 -540808699 -540809547 238076987#2 -238076988#2"/>
    </person>
    <person id="ped23" type="ped_pedestrian" depart="11.20">
        <walk edges="542888302 -22762631#2 -22762631#4 -22762631#5 -22762631#6 542888742#7 542888742#6 542888742#5 542888742#4 542888742#3 -542888742#2 -542888742#1 -542888742#0 -542889613#2 -542889613#1 -542889613#0 884898915#0 902041370#1 -1121868633 -902041371#0 1086613560 71851235#1 71851121#1 71851121#2 71851121#3 71851121#4 22812516#3 19795421#3 19795421#4 19795421#5 19795421#6 533336765#1 533336765#2 533336765#5 538779676#0 -538779676#1 -186258676#0 -186258676#1 -186258676#2 -186258676#3 12149919#1 12149919#0 5008797#5 5008797#4 4995526#2 4995526#3 4995526#4 4995526#6 -4995526#7 -191171868#0 -191171868#1 -191171868#2 -191171868#3 191171904#2 191171904#1 191171904#0"/>
    </person>
    <person id="ped24" type="ped_pedestrian" depart="11.68">
        <walk edges="-100035153#5 -629177227#2 -629177227#1 -629177227#0 -738919016 -1121870636#0 -711245784 -575264197 575264198#0 533755199 628340592#1 628340592#0 533754590 202164692#0 202164692#1 -694543281#0 599233948#0 599233948#2 884902693#2 696681044#0 696681044#1 696681044#2 696683811#1 884903847#1 199292203#0 629605186#0 629605186#2 629605186#4 575288084#0 575288084#2 575288084#4 199292123 75901928#2 -75902568"/>
    </person>
    <person id="ped25" type="ped_pedestrian" depart="12.17">
        <walk edges="-1071979329 -1041199872#0 -1041199872#1 270479436#2 270479436#0 538560744 538561550 538561549 538560996 -80748714 696710724#0 16361953#0 16361953#1 -16361951#4 -16361951#3 -16361951#2 71201335 16361950 -112892789#3 -80497987#2 -80497987#1 -80497987#0 -20608181#1 -20608181#2 20608185#3 -20608185#2 -20608185#1 -20608185#0 81637718#1"/>
    </person>
    <person id="ped30" type="ped_pedestrian" depart="14.60">
        <walk edges="-628220615#3 -243167822#1 -1031656698#1 -1031656698#0 -25441290#2 -25441290#0 1031656697 -25441289#0 -25441289#2 -25441289#3 -25441289#4 25441289#5 25441289#6 25441289#7 25441286#0 25441286#1 25441286#2 25441286#3 25441286#4 25441286#5 -533966837 -22057016#4 -22057016#3 -22057016#2 22057016#1 22057016#0 -459876320#0 22057014#1 22057008#1 22057008#0 -196637993#7 -196637993#10 -196637993#12 47008153#5 81524340#4 -81524341 74508909#6"/>
    </person>
    <person id="ped31" type="ped_pedestrian" depart="15.09">
        <walk edges="191171903#2 5007374#3 5007374#4 -5007352#0 -191171904#1 -191171904#2 4995527#0 696683811#1 696681044#2 696681044#1 696681044#0 884902693#2 599233948#2 599233948#0 -694543281#0 202164692#1 202164692#0 533754590 628340592#0 628340592#1 533755199 575264198#0 -575264197 -711245784 -533754592#0 -533754592#1 -533754592#2 -533754592#3 -533754592#4 738919396#1 265755590#3 478502465 738919397 637090587#6 538063665#4 538063665#3 538063665#2 538063665#1 538063665#0"/>
    </person>
    <person id="ped32" type="ped_pedestrian" depart="15.58">
        <walk edges="1098067580 1098067579 1098067581 1098067578 1098067577 1098067576 78746614 78746580 -87689632#0 -87689632#1 87689632#3 78746590 78746612 78746577 78746599 78746609 78746586 78746620 78746594 78746604 -243167819#1 -243167819#0 -243167818#2 -243167818#1 -243167818#0 78762025 243167822#0 243167822#1 243167822#2 -87416837#9 -87416837#7 -87416837#5 -87416837#4 -87416837#3 87416837#2 87416837#1 70935309 197347307#8 -41601212#3 -41601212#2 20614586#1 20614586#2 20614578#0 20614578#1 20614575#4 20614575#5 -263475701#1 802554891 16361962#6"/>
    </person>
    <person id="ped33" type="ped_pedestrian" depart="16.07">
        <walk edges="-80201130 20614983#9 -23115869#2 -23115869#0 -80201643#1 -80201643#0 -81539618 81539619#0 -1031624420 533964948#2 533964948#1 533964948#0 -22056972#0 -22056972#1 -22056972#2 22056972#3"/>
    </person>
    <person id="ped34" type="ped_pedestrian" depart="16.55">
        <walk edges="-533953926#0 -74525639#0 -74525639#1 -74525639#2 199291196#3 1102368563 -199291146#5 -533954049#0 -819978579 209977258#0 209977258#1 209977258#2 209977258#3 209977258#4 209977258#5 209977258#6 -263478933#6 -263478933#4 -5008797#5"/>
    </person>
    <person id="ped36" type="ped_pedestrian" depart="17.53">
        <walk edges="-5002684#2 5002684#1 43633667#0 1121867672 5002662#0 5002662#1 71890970#0 191171267#0 191171267#1 191171267#2 191171267#3 -622632054#0 -622632054#1 -622632054#2 -622632054#3 -622632054#4 -622632048#0 21803816#1 21803817#0 21803817#1 -5008638#2 -21803822 -21803821 538744100#15 538744100#16 -538744100#17 -5008632#1 -5008632#2 -5008632#3 -5008632#6 -5008632#7 -392501901#0 -392501901#1 477905606#8 -21876230#0"/>
    </person>
    <person id="ped37" type="ped_pedestrian" depart="18.01">
        <walk edges="82629217#0 -47707315#4 -47707315#5 -47707315#7 47707315#8 47707315#9 -80602899#8 -80602899#7 -80602899#5 80602899#4 80602899#3 80602899#2 80602899#1 80602899#0 48566461#4 48566461#3 -48566461#2 -48566461#1 25441286#5 80202471#0 265803953#5 265803953#4 265803953#3 265803953#2 265803953#1 265803953#0 265803951#1 265803951#0 80586464#1 -20615462#1 -20615462#0 16286776#0 16286776#1 16286776#2 -20612535#1 -20612535#0 -20608183#4 -20608183#3 20608184#0 20608184#1"/>
    </person>
    <person id="ped38" type="ped_pedestrian" depart="18.50">
        <walk edges="70881094#0 70881094#1 -74202461#4 -74202461#3 -74202461#2 -74202461#1 41601199#0 41601199#2 41601199#3 41601199#4 41601199#5 41601199#6 41601199#7 41601199#8 41601199#9 -41601199#10 71892231#5 71892231#4 71892231#3 71892231#2 -191171275#1 -191171275#2 191171275#3 191171275#4 191171275#5 191171275#6 191171275#7 -71198188 78744313 -78725084#0 78746580 78746614 1098067576 1098067577 1098067578 1098067581 1098067579 1098067580 75140180 1098067575 1098067574 -47705108#1 -41601209#10"/>
    </person>
    <person id="ped39" type="ped_pedestrian" depart="18.99">
        <walk edges="-191917865#0 -902044611 -902042531#2 -902042531#1 -902042531#0 22895532 22895531 -435287624 -50664460 48290275 -22895526 -197335668#2 -22895538#0 -902041371#1 1086613560"/>
    </person>
    <person id="ped41" type="ped_pedestrian" depart="19.96">
        <walk edges="101817279#0 81527034#4 81527034#3 -74508909#5 74508909#6 -81524341 81524340#4 47008153#5 47008152#0 47008152#1 47008152#2 47008152#3 47008152#4 47008152#5 81539619#2 81539619#3 81539618 80201643#0 80201643#1 -23115869#0 -23115869#2 20614983#9 20614983#8 20614983#7 20614983#6 20614983#4 20614983#3 20614983#2 -20614983#1 -20614586#4 -80201732#1"/>
    </person>
    <person id="ped44" type="ped_pedestrian" depart="21.42">
        <walk edges="880133024#0 646493151#1 646493151#2 87415532#1 87415532#3 81637718#5 81637718#4 81637718#3 81637718#2 -81637718#1 -81637718#0 263475699 80201643#7 80201643#6 80201643#5 80201643#4 80201643#3 80201643#2 80201643#1 80201643#0 965601649 74310483#3 -74310483#1 -74310483#0 22057023#1 -533966836#2 81539622#0"/>
    </person>
    <person id="ped45" type="ped_pedestrian" depart="21.91">
        <walk edges="738810539 -238076988#3 238076987#2 -540809547 -540808699 -540808700#5 -540808700#4 -238076986#0 -238076986#1 79629212#7 79629217#1 16361962#6 802554891 -263475701#1 20614575#5 20614575#4 20614578#1 20614578#0 20614586#2 20614586#1 -41601212#2 -41601212#3 197347307#8 70935309 87416837#1 87416837#2 -87416837#3 -87416837#4 -87416837#5 -87416837#7 -87416837#9 243167822#2 243167822#1 243167822#0 78762025 -243167818#0 -243167818#1 -243167818#2 -243167819#0 -243167819#1 -243167819#2 197335663#0 197335663#1 197335663#2 -265590372 197335673#4 197335673#2 197335673#1 -191171274 71892231#0 71892231#1 191171275#1 -265590374"/>
    </person>
    <person id="ped46" type="ped_pedestrian" depart="22.39">
        <walk edges="1014904294#1 1014904294#0 -994884919#0 -193160700#1 994884917 994884914#2 994884915 994884914#0 994884916 190846217#1 994884913 -21876230#2 -21876230#1 -21876230#0 477905606#8 5007374#0 5007374#1 5007374#2 5007374#3 5007374#4 -5007352#0 -191171904#1 -191171904#2 4995527#0 696683811#1 696681044#2 696681044#1 696681044#0 884902693#2 599233948#2 599233948#0 -694543281#0 202164692#1 202164692#0 533754590 628340592#0 628340592#1 533755199 575264198#0 -575264197 -711245784 -1121870636#0 -738919016 -629177227#0 -629177227#1 -629177227#2 -100035153#5 -100035153#4 -100035153#3 -100035153#2 -100035153#1 -738917898#1 738917898#2 -876105039#0 -538610023#2 -538610023#3 -538610023#4 673848984#2 660671406#0 660671406#1 150343747#1 -660671410 74212361#1 -74212386 74212347#1 74212347#0 -150176589#0 151568366 -151568364#0 -150176607"/>
    </person>
    <person id="ped47" type="ped_pedestrian" depart="22.88">
        <walk edges="-87646116 20611643#1 20606824#2 20606824#3 20606824#4 -230054060 -16361949#4 -16361949#3 -16361949#1 -16361949#0 -113142043#4 -113142043#3 -303867954 71915917#1 1047651368 71915925 1047651367 1047651366#0 1047651366#1 71914370#1 71914370#2 71914370#3 71914370#4 71915929#1 71915933#0 857569275#0 -857569275#2 -906584131#1 -14645796#0 -14645796#1 190845805#0 14645796#3 14645797#0 14645797#1 14645797#2 14645797#3 14645797#4 21812267#0 21812267#1 21812267#2 21876229#0 21876229#1 21876229#2 813657504#1 813657504#0 -459626609#1 -459626609#2 -21812298#2 958460239"/>
    </person>
    <person id="ped49" type="ped_pedestrian" depart="23.85">
        <walk edges="-243167819#1 -243167819#2 197335663#0 197335663#1 197335663#2 -265590372 197335673#4 197335673#2 197335673#1 -48566227#0 -48566227#1 -48566227#2 -965010804 22338487#2 -22338489#0 -22338489#1 -22338489#2 -22338489#3 -74523668#0 -74523668#1 -74523668#2 -74523668#4 -74523668#5 542262526 -73860370 -73860374#1 -1033555987 73860380#1 73860380#0 -1033555988#0 -1033555988#1 542424891#5 542424891#7 22762632#0 22762632#1 22762632#2 22762632#3 22762632#4 22762632#5 22762632#6 -72051039#1 -72051039#0"/>
    </person>
    <person id="ped50" type="ped_pedestrian" depart="24.34">
        <walk edges="879223008#0 879223007#0 354892139 207342653#0 207342653#2 -71228724#0 -71228724#2 -71228724#3 74250549#0 -178760836 22895525#2 22895525#3 22895525#4 22895525#5 22895525#6 48290275 -22895526 -197335668#2 -22895538#0 -902041371#1 1086613560 71851235#1 71851121#1 71851121#2 71851121#3 71851121#4 22812516#3 19795421#3 19795421#4 19795421#5 19795421#6 533336765#1 533336765#2 533336765#5 538779676#0 -538779676#1 -186258676#0 -186258676#1 -186258676#2 -186258676#3 12149919#1 12149919#0 5008797#5 5008797#4 4995526#2 4995526#3 4995526#4 4995526#6 -4995526#7 -191171868#0 -191171868#1 -191171868#2 -191171868#3 4995527#0 696683811#1 696681044#2 696681044#1 696681044#0 884902693#2 599233948#2 599233948#0 -694543281#0 202164692#1 202164692#0 533754590 628340592#0 628340592#1 533755199 575264198#0 -575264197 -711245784 -1121870636#0 -738919016 -629177227#0 -629177227#1 -629177227#2 -100035153#5 -100035153#4 -100035153#3 -100035153#2 -100035153#1 -738917898#1 738917898#2 -738917898#3 207348742"/>
    </person>
    <person id="ped51" type="ped_pedestrian" depart="24.83">
        <walk edges="-150176592#0 -150176592#1 -876105039#1 -876105039#0 738917898#2 -738917898#1 -100035153#1 -100035153#2 -100035153#3 -100035153#4 -100035153#5 -629177227#2 -629177227#1 -629177227#0 -738919016 -1121870636#0 -711245784 -575264197 575264198#0 533755199 628340592#1 628340592#0 533754590 202164692#0 202164692#1 -694543281#0 599233948#0 599233948#2 884902693#2 696681044#0 696681044#1 696681044#2 696683811#1 4995527#0 191171904#2 191171904#1 191171904#0 191171902 622646270#1 622646270#0 5007376 538744100#17 -538744100#16 -264574674 477905606#0 477905082 21812298#4 21812298#3 21812298#2 21812298#0"/>
    </person>
    <person id="ped53" type="ped_pedestrian" depart="25.80">
        <walk edges="22338489#0 -22338487#1 -22338488#3 -22338488#2 -22338488#1 -22338488#0 289286693#0 22338484#1 22338484#0 905852809#1 -537775366#2 1102368566#1 533547411#6 201845690#1 209977258#0 209977258#1 209977258#2 209977258#3 209977258#4 209977258#5 209977258#6 -263478933#6 -263478933#4 5008797#5 12149919#0 12149919#1 12149919#2 12149919#3 12149919#4 628983984#0 628984636#1 -459626001#0 459626001#1"/>
    </person>
    <person id="ped54" type="ped_pedestrian" depart="26.29">
        <walk edges="77009347 -77009348#0 -21812289#3 -21812289#2 -21812289#1 -21812289#0 -21812258#4 -21812258#3 -21812258#1 -21812258#0 76276824#3 265590375#0 265590375#1 265590375#2 265590375#3 265590375#4 265590375#5 265590375#6 265590375#7 265590375#9 893426054#0 -1006730649#1 197335659#5 197335659#4 197335659#2 197335659#0 71591627#2 71591627#1 71591627#0 1098069015 78737006 1098069014#1 1098069013 78732403 1098069016 -87689632#1 -87689632#0 78746580 78746614 1098067576 1098067577 1098067578 1098067581 1098067579 1098067580 75140180 1098067575 1098067574 -47705108#1 -41601209#10 -41601209#8 -41601209#7 41601209#6 80608173 80608169#0 80608170#0 542169149 82636848#3 82636848#2 82636848#1 82636848#0 539286413 542172605#1 -542172605#2 -542172606#0"/>
    </person>
    <person id="ped55" type="ped_pedestrian" depart="26.78">
        <walk edges="1033580751 599233948#0 599233948#2 884902693#2 696681044#0 696681044#1 696681044#2 696683811#1 4995527#0 -191171904#2 -191171904#1 -5007352#0 5007374#4 5007374#3 5007374#2 5007374#1 5007374#0 477905606#8 -21876230#0 -21876230#1 -21876230#2 21812267#2"/>
    </person>
    <person id="ped58" type="ped_pedestrian" depart="28.24">
        <walk edges="-16361951#2 -16361951#3 -16361951#4 -16361951#5 -113142043#1 634649838#1 532959624#1 -634642322#3 -303868601 1031656705#1 1031656704 78714765 -14645795#5 -14645795#4 -14645795#3 -696688169#1 -696688169#0 696688171#2 696688171#3 -696688170#0 78363491 -171660425#2 78363484 -78363497 78363500 -78363492#0 78363490 -171660425#10 23054006#2 23054006#4 23054006#5 191172488 542168669#0 542168669#1 542168669#2 542168669#3 575295066 -1037180248#0 232884226#1 232884226#0 191170314#3 191170314#2 191170314#1 191170314#0 42712162#5 42712162#3 1123696182#0 575288085#3 575288085#2 575288085#0 629605186#4 629605186#2 629605186#0 199292203#0 5007352#1 5007352#0 -191171904#1 -191171904#2 -191171868#3 -191171868#2 -191171868#1 -191171868#0 -4995526#7 -4995526#6 -4995526#4 -4995526#3"/>
    </person>
    <person id="ped59" type="ped_pedestrian" depart="28.72">
        <walk edges="75238042#1 87645355#1 87645355#0 -880147629 87645354#2 -16286792 -265919879#2 16286793#0 -16286793#1 -16286796 -81591067#1 -926663640 183173275#1 183173275#0 87415532#3 87415532#1 646493151#2 646493151#1 646493151#0 926660681#3 926660681#1 926660681#0 926660674#0 802571806#0 802571806#2 219453108#5 220204208 41598125#0 41598125#1 926660676#2 926660676#3 926660676#4 -171222380#2 -171222380#1 -866218762#0 1094285605 935336517#0 -70792502 75151635#3 75151638#0 75151638#1"/>
    </person>
    <person id="ped60" type="ped_pedestrian" depart="29.21">
        <walk edges="71915918#2 71915922 532960908 -112595539#1 -79623946#1 -79623946#0 -79623949#1 -79623949#0 541895379 962402517 -962402516#1 -79625263#0 802554898#3 802554898#4 802554895 -16361962#7 802554891 -263475701#1 20614575#5 20614575#4 20614578#1 20614578#0 20614586#2 20614586#1 -41601212#2 -41601212#3 197347307#8 70935309 87416837#1 87416837#2 -87416837#3 -87416837#4 -87416837#5 -87416837#7 -87416837#9 243167822#2 243167822#1 243167822#0 78762025 -243167818#0 -243167818#1 -243167818#2 21812230#0 21812230#1 1144343527 43633674#2 43633674#1 43633674#0 1033551664 156822522 -5008626 5007504#0 5007504#1"/>
    </person>
    <person id="ped62" type="ped_pedestrian" depart="30.18">
        <walk edges="-22056980#1 -81528121#0 -81528121#1 -22056966#9 114199846#1 -114199393#0 -114199393#1 623888006#0 -114199396#2 -114199396#3 -114199396#4 74310475#7 -74310485#0 74310485#2 74310485#4 74310485#5 74310485#6 74310485#7 74310485#8 74310485#9 74310485#10 74310485#11 81637911 81637718#2 20611645#0 20611645#1 -20606824#0"/>
    </person>
    <person id="ped63" type="ped_pedestrian" depart="30.67">
        <walk edges="533127464#8 22338490#4 22338490#2 22338490#1 22338490#0 263476550#0 965010804 48566227#2 71599403#2 71599403#1 71599403#0 893426051#4 893426051#3 893426051#2 893426051#0 893426054#0 265590375#9 265590375#7 265590375#6 265590375#5 -265590375#4 -265590375#3 -265590375#2 -265590375#1 -265590375#0 -76276824#3 -76276824#2 -76276824#1 -76276824#0 477905082 -477905606#0 -477905606#1"/>
    </person>
    <person id="ped64" type="ped_pedestrian" depart="31.16">