<?xml version="1.0" encoding="UTF-8"?>

<!-- generated on 2023-02-19 19:04:34.217990 by osmWebWizard.py v1_15_0+0002-e6790248698
<configuration>
    <end value="3600"/>
    <fringe-factor value="5"/>
    <fringe-start-attributes value="departSpeed=&quot;max&quot;"/>
    <insertion-density value="4.0"/>
    <min-distance.fringe value="10.0"/>
    <min-distance value="600.0"/>
    <net-file value="C:\Users\gueye\Sumo\2023-02-19-18-57-45\osm.net.xml.gz"/>
    <remove-loops value="True"/>
    <route-file value="C:\Users\gueye\Sumo\2023-02-19-18-57-45\osm.bus.rou.xml"/>
    <trip-attributes value="departLane=&quot;best&quot;"/>
    <output-trip-file value="C:\Users\gueye\Sumo\2023-02-19-18-57-45\osm.bus.trips.xml"/>
    <prefix value="bus"/>
    <validate value="True"/>
    <vclass value="bus"/>
    <vehicle-class value="bus"/>
</configuration>
-->

<!-- generated on 2023-02-19 19:04:29 by Eclipse SUMO duarouter Version 1.15.0
<configuration xmlns:xsi="http://www.w3.org/2001/XMLSchema-instance" xsi:noNamespaceSchemaLocation="http://sumo.dlr.de/xsd/duarouterConfiguration.xsd">

    <input>
        <net-file value="C:\Users\gueye\Sumo\2023-02-19-18-57-45\osm.net.xml.gz"/>
        <route-files value="C:\Users\gueye\Sumo\2023-02-19-18-57-45\osm.bus.trips.xml"/>
    </input>

    <output>
        <output-file value="C:\Users\gueye\Sumo\2023-02-19-18-57-45\osm.bus.trips.xml.tmp"/>
        <alternatives-output value="NUL"/>
        <write-trips value="true"/>
    </output>

    <processing>
        <remove-loops value="true"/>
    </processing>

    <time>
        <begin value="0"/>
        <end value="3600"/>
    </time>

    <report>
        <no-warnings value="true"/>
        <ignore-errors value="true"/>
        <no-step-log value="true"/>
    </report>

</configuration>
-->

<routes xmlns:xsi="http://www.w3.org/2001/XMLSchema-instance" xsi:noNamespaceSchemaLocation="http://sumo.dlr.de/xsd/routes_file.xsd">
    <vType id="bus_bus" vClass="bus"/>
    <trip id="bus0" type="bus_bus" depart="0.00" departLane="best" from="-270483375#1" to="-114197671#2"/>
    <trip id="bus1" type="bus_bus" depart="1.53" departLane="best" departSpeed="max" from="-71834090" to="-50655177#1"/>
    <trip id="bus2" type="bus_bus" depart="3.07" departLane="best" from="537772770#1" to="47707315#12"/>
    <trip id="bus3" type="bus_bus" depart="4.60" departLane="best" from="-1031689109#2" to="14643200#2"/>
    <trip id="bus4" type="bus_bus" depart="6.14" departLane="best" from="-533828109#4" to="191628560#9"/>
    <trip id="bus5" type="bus_bus" depart="7.67" departLane="best" from="-14645795#5" to="-47707315#7"/>
    <trip id="bus6" type="bus_bus" depart="9.20" departLane="best" from="354892172#0" to="20614578#0"/>
    <trip id="bus7" type="bus_bus" depart="10.74" departLane="best" from="538063665#1" to="22895539#0"/>
    <trip id="bus8" type="bus_bus" depart="12.27" departLane="best" from="71228724#0" to="1033551663#0"/>
    <trip id="bus9" type="bus_bus" depart="13.81" departLane="best" from="71082577#2" to="48566461#2"/>
    <trip id="bus11" type="bus_bus" depart="16.87" departLane="best" from="87410498#3" to="876203133#1"/>
    <trip id="bus12" type="bus_bus" depart="18.41" departLane="best" from="207342657#0" to="-20618819#2"/>
    <trip id="bus13" type="bus_bus" depart="19.94" departLane="best" from="-74212383#0" to="-243167818#1"/>
    <trip id="bus14" type="bus_bus" depart="21.48" departLane="best" from="-71205596#3" to="534191963"/>
    <trip id="bus15" type="bus_bus" depart="23.01" departLane="best" from="205229385#3" to="205229385#3"/>
    <trip id="bus16" type="bus_bus" depart="24.54" departLane="best" from="-82629207" to="-207342657#0"/>
    <trip id="bus17" type="bus_bus" depart="26.08" departLane="best" from="72713042#1" to="263475701#2"/>
    <trip id="bus18" type="bus_bus" depart="27.61" departLane="best" from="-16361953#1" to="-16361953#1"/>
    <trip id="bus19" type="bus_bus" depart="29.15" departLane="best" from="20606824#2" to="-539264384#3"/>
    <trip id="bus20" type="bus_bus" depart="30.68" departLane="best" from="-21876225#3" to="-71197238#2"/>
    <trip id="bus21" type="bus_bus" depart="32.21" departLane="best" departSpeed="max" from="265919877" to="80726659"/>
    <trip id="bus22" type="bus_bus" depart="33.75" departLane="best" from="-48566147#3" to="-48566147#3"/>
    <trip id="bus23" type="bus_bus" depart="35.28" departLane="best" from="-70935307#0" to="82317592"/>
    <trip id="bus24" type="bus_bus" depart="36.82" departLane="best" from="-354892105#3" to="24586918#4"/>
    <trip id="bus25" type="bus_bus" depart="38.35" departLane="best" from="-41601199#10" to="-533966837"/>
    <trip id="bus26" type="bus_bus" depart="39.88" departLane="best" from="-372154871#2" to="81637718#5"/>
    <trip id="bus27" type="bus_bus" depart="41.42" departLane="best" from="929290505#2" to="354892175#0"/>
    <trip id="bus28" type="bus_bus" depart="42.95" departLane="best" from="209977258#1" to="-48466900#7"/>
    <trip id="bus29" type="bus_bus" depart="44.49" departLane="best" from="-542888742#0" to="-14645797#2"/>
    <trip id="bus30" type="bus_bus" depart="46.02" departLane="best" from="-74976327#2" to="-70794469#1"/>
    <trip id="bus31" type="bus_bus" depart="47.55" departLane="best" departSpeed="max" from="-5007529" to="82640609#2"/>
    <trip id="bus32" type="bus_bus" depart="49.09" departLane="best" from="-76279001#0" to="74502288#3"/>
    <trip id="bus34" type="bus_bus" depart="52.15" departLane="best" from="-80604433#1" to="14643206"/>
    <trip id="bus35" type="bus_bus" depart="53.69" departLane="best" from="70935303#2" to="-622797269"/>
    <trip id="bus36" type="bus_bus" depart="55.22" departLane="best" from="-21812258#4" to="-70418321#1"/>
    <trip id="bus37" type="bus_bus" depart="56.76" departLane="best" from="-22762632#1" to="80352300"/>
    <trip id="bus38" type="bus_bus" depart="58.29" departLane="best" departSpeed="max" from="-4997046#1" to="-4997046#1"/>
    <trip id="bus39" type="bus_bus" depart="59.82" departLane="best" from="191917865#1" to="191917865#1"/>
    <trip id="bus40" type="bus_bus" depart="61.36" departLane="best" from="-22057030#3" to="-265803952"/>
    <trip id="bus41" type="bus_bus" depart="62.89" departLane="best" departSpeed="max" from="70726941" to="1022381296"/>
    <trip id="bus42" type="bus_bus" depart="64.43" departLane="best" from="-191915830#0" to="-81707857#2"/>
    <trip id="bus43" type="bus_bus" depart="65.96" departLane="best" departSpeed="max" from="199292127#4" to="199292127#4"/>
    <trip id="bus44" type="bus_bus" depart="67.49" departLane="best" from="884898915#0" to="74887224#2"/>
    <trip id="bus45" type="bus_bus" depart="69.03" departLane="best" from="-1121868634" to="-532963378#0"/>
    <trip id="bus46" type="bus_bus" depart="70.56" departLane="best" from="20608178#2" to="20608178#2"/>
    <trip id="bus47" type="bus_bus" depart="72.10" departLane="best" from="-70935306#3" to="364619185#1"/>
    <trip id="bus48" type="bus_bus" depart="73.63" departLane="best" from="-22338484#1" to="1096044887#1"/>
    <trip id="bus49" type="bus_bus" depart="75.16" departLane="best" from="1147663951" to="87416837#4"/>
    <trip id="bus50" type="bus_bus" depart="76.70" departLane="best" from="76278999" to="-70418324#1"/>
    <trip id="bus51" type="bus_bus" depart="78.23" departLane="best" from="190855218#0" to="-393260103#2"/>
    <trip id="bus52" type="bus_bus" depart="79.77" departLane="best" from="80602904#3" to="75901682#0"/>
    <trip id="bus53" type="bus_bus" depart="81.30" departLane="best" from="74212357#3" to="-354892139"/>
    <trip id="bus54" type="bus_bus" depart="82.83" departLane="best" departSpeed="max" from="-264902089#1" to="-264902089#1"/>
    <trip id="bus55" type="bus_bus" depart="84.37" departLane="best" from="623886370#2" to="20608185#2"/>
    <trip id="bus56" type="bus_bus" depart="85.90" departLane="best" from="-660532725#3" to="201765476"/>
    <trip id="bus57" type="bus_bus" depart="87.44" departLane="best" from="-1006730649#1" to="-75088506#4"/>
    <trip id="bus58" type="bus_bus" depart="88.97" departLane="best" from="-114194008#0" to="-114194008#0"/>
    <trip id="bus59" type="bus_bus" depart="90.50" departLane="best" from="-76281479" to="73850664#1"/>
    <trip id="bus60" type="bus_bus" depart="92.04" departLane="best" from="-74502288#0" to="-178348838#2"/>
    <trip id="bus61" type="bus_bus" depart="93.57" departLane="best" from="-76281476#1" to="82677677#1"/>
    <trip id="bus62" type="bus_bus" depart="95.11" departLane="best" from="-20612535#1" to="-20612535#1"/>
    <trip id="bus63" type="bus_bus" depart="96.64" departLane="best" from="-197335657#1" to="629177224#2"/>
    <trip id="bus64" type="bus_bus" depart="98.17" departLane="best" from="629177224#4" to="22895532"/>
    <trip id="bus65" type="bus_bus" depart="99.71" departLane="best" from="16286785#3" to="20615462#1"/>
    <trip id="bus66" type="bus_bus" depart="101.24" departLane="best" from="70935303#3" to="76279001#1"/>
    <trip id="bus67" type="bus_bus" depart="102.78" departLane="best" from="-1033555988#1" to="-48566248#4"/>
    <trip id="bus68" type="bus_bus" depart="104.31" departLane="best" from="20608181#1" to="20608181#1"/>
    <trip id="bus69" type="bus_bus" depart="105.84" departLane="best" from="-74310477#3" to="-74310477#3"/>
    <trip id="bus70" type="bus_bus" depart="107.38" departLane="best" from="965125129" to="41598124"/>
    <trip id="bus71" type="bus_bus" depart="108.91" departLane="best" from="-1121868635" to="197335672#1"/>
    <trip id="bus72" type="bus_bus" depart="110.45" departLane="best" from="22812515#1" to="-50655180#0"/>
    <trip id="bus73" type="bus_bus" depart="111.98" departLane="best" departSpeed="max" from="-80201128#1" to="22895536#1"/>
    <trip id="bus74" type="bus_bus" depart="113.51" departLane="best" from="-542888742#6" to="-5002686#1"/>
    <trip id="bus75" type="bus_bus" depart="115.05" departLane="best" from="-197335673#4" to="27467272#0"/>
    <trip id="bus76" type="bus_bus" depart="116.58" departLane="best" from="-542424891#8" to="80602906#1"/>
    <trip id="bus77" type="bus_bus" depart="118.12" departLane="best" from="-622800566#0" to="47008155#3"/>
    <trip id="bus78" type="bus_bus" depart="119.65" departLane="best" from="-50655178#3" to="230154508#0"/>
    <trip id="bus79" type="bus_bus" depart="121.18" departLane="best" from="-81637718#2" to="22057014#0"/>
    <trip id="bus80" type="bus_bus" depart="122.72" departLane="best" from="16286778#4" to="70418318#2"/>
    <trip id="bus81" type="bus_bus" depart="124.25" departLane="best" from="71220000" to="-461741765"/>
    <trip id="bus82" type="bus_bus" depart="125.79" departLane="best" from="-21803816#0" to="1090593963#1"/>
    <trip id="bus83" type="bus_bus" depart="127.32" departLane="best" from="16286765#5" to="16286765#5"/>
    <trip id="bus84" type="bus_bus" depart="128.85" departLane="best" from="533327242#2" to="47705548#2"/>
    <trip id="bus85" type="bus_bus" depart="130.39" departLane="best" from="908311234#1" to="-207348735#0"/>
    <trip id="bus86" type="bus_bus" depart="131.92" departLane="best" from="-908310913#1" to="-79623947#0"/>
    <trip id="bus87" type="bus_bus" depart="133.46" departLane="best" from="-74523668#6" to="-628220615#0"/>
    <trip id="bus88" type="bus_bus" depart="134.99" departLane="best" from="-48290026#0" to="114194005#6"/>
    <trip id="bus89" type="bus_bus" depart="136.52" departLane="best" from="-1031689109#2" to="-71199305#1"/>
    <trip id="bus90" type="bus_bus" depart="138.06" departLane="best" from="-660949185#1" to="-81580746#1"/>
    <trip id="bus91" type="bus_bus" depart="139.59" departLane="best" departSpeed="max" from="112994929" to="74888148"/>
    <trip id="bus92" type="bus_bus" depart="141.13" departLane="best" from="20614586#7" to="20614586#7"/>
    <trip id="bus93" type="bus_bus" depart="142.66" departLane="best" from="96876147#2" to="74201104"/>
    <trip id="bus94" type="bus_bus" depart="144.19" departLane="best" departSpeed="max" from="88114118#0" to="81637718#1"/>
    <trip id="bus95" type="bus_bus" depart="145.73" departLane="best" from="74212959#0" to="27467272#5"/>
    <trip id="bus96" type="bus_bus" depart="147.26" departLane="best" from="-171660425#1" to="-48566418#1"/>
    <trip id="bus97" type="bus_bus" depart="148.79" departLane="best" from="-82629221" to="927188021#0"/>
    <trip id="bus98" type="bus_bus" depart="150.33" departLane="best" from="70935303#4" to="-70410369#2"/>
    <trip id="bus99" type="bus_bus" depart="151.86" departLane="best" from="12149919#3" to="-102995020"/>
    <trip id="bus100" type="bus_bus" depart="153.40" departLane="best" from="87410498#4" to="87410498#4"/>
    <trip id="bus101" type="bus_bus" depart="154.93" departLane="best" from="207348741" to="50655185#1"/>
    <trip id="bus102" type="bus_bus" depart="156.46" departLane="best" from="-289286693#1" to="-72714612#0"/>
    <trip id="bus103" type="bus_bus" depart="158.00" departLane="best" departSpeed="max" from="88114118#0" to="22762540#4"/>
    <trip id="bus104" type="bus_bus" depart="159.53" departLane="best" from="-20611641#2" to="56181610#3"/>
    <trip id="bus105" type="bus_bus" depart="161.07" departLane="best" from="-191171868#3" to="22812516#1"/>
    <trip id="bus106" type="bus_bus" depart="162.60" departLane="best" from="32067565#2" to="87645828#0"/>
    <trip id="bus107" type="bus_bus" depart="164.13" departLane="best" from="-20606824#4" to="-20606824#4"/>
    <trip id="bus108" type="bus_bus" depart="165.67" departLane="best" from="23054005#4" to="-47705605#1"/>
    <trip id="bus109" type="bus_bus" depart="167.20" departLane="best" from="60644115#4" to="-22762539#0"/>
    <trip id="bus110" type="bus_bus" depart="168.74" departLane="best" from="-79629212#5" to="-622787789#3"/>
    <trip id="bus111" type="bus_bus" depart="170.27" departLane="best" from="1031656698#1" to="22812335#3"/>
    <trip id="bus112" type="bus_bus" depart="171.80" departLane="best" from="197336403#3" to="197336403#3"/>
    <trip id="bus113" type="bus_bus" depart="173.34" departLane="best" from="-48566478#0" to="50655177#3"/>
    <trip id="bus114" type="bus_bus" depart="174.87" departLane="best" from="-623886370#0" to="-838225636"/>
    <trip id="bus115" type="bus_bus" depart="176.41" departLane="best" from="43633670#1" to="73913540#3"/>
    <trip id="bus116" type="bus_bus" depart="177.94" departLane="best" from="75088506#4" to="-60644115#1"/>
    <trip id="bus117" type="bus_bus" depart="179.47" departLane="best" from="-197347297#1" to="14643200#0"/>
    <trip id="bus118" type="bus_bus" depart="181.01" departLane="best" from="-197347727" to="48566403"/>
    <trip id="bus119" type="bus_bus" depart="182.54" departLane="best" from="70935303#4" to="817536827"/>
    <trip id="bus120" type="bus_bus" depart="184.08" departLane="best" from="-265590370" to="-265590370"/>
    <trip id="bus121" type="bus_bus" depart="185.61" departLane="best" from="72714608#5" to="-4995527#0"/>
    <trip id="bus122" type="bus_bus" depart="187.14" departLane="best" from="24586918#1" to="935095224#0"/>
    <trip id="bus123" type="bus_bus" depart="188.68" departLane="best" from="372154870#1" to="-1033784220"/>
    <trip id="bus124" type="bus_bus" depart="190.21" departLane="best" from="71961787#2" to="-73913539#5"/>
    <trip id="bus125" type="bus_bus" depart="191.75" departLane="best" from="-41601198#1" to="82317604#0"/>
    <trip id="bus126" type="bus_bus" depart="193.28" departLane="best" from="-243133902#12" to="22057038#1"/>
    <trip id="bus127" type="bus_bus" depart="194.81" departLane="best" from="22057008#0" to="207348735#6"/>
    <trip id="bus128" type="bus_bus" depart="196.35" departLane="best" from="-71228724#4" to="243167820#3"/>
    <trip id="bus129" type="bus_bus" depart="197.88" departLane="best" from="5008777#1" to="-48347377#1"/>
    <trip id="bus130" type="bus_bus" depart="199.42" departLane="best" from="265803953#0" to="-70726938#2"/>
    <trip id="bus131" type="bus_bus" depart="200.95" departLane="best" from="80602905#1" to="80602905#1"/>
    <trip id="bus132" type="bus_bus" depart="202.48" departLane="best" from="-74212369#2" to="-20614575#1"/>
    <trip id="bus133" type="bus_bus" depart="204.02" departLane="best" from="-70935310#0" to="-70935310#0"/>
    <trip id="bus134" type="bus_bus" depart="205.55" departLane="best" from="1031656701#1" to="653203984#1"/>
    <trip id="bus135" type="bus_bus" depart="207.09" departLane="best" departSpeed="max" from="266538979" to="-70410369#2"/>
    <trip id="bus136" type="bus_bus" depart="208.62" departLane="best" from="538744100#9" to="207342653#2"/>
    <trip id="bus137" type="bus_bus" depart="210.15" departLane="best" from="-19795421#5" to="-19795421#5"/>
    <trip id="bus138" type="bus_bus" depart="211.69" departLane="best" from="72714612#3" to="22762632#3"/>
    <trip id="bus139" type="bus_bus" depart="213.22" departLane="best" from="265397452#1" to="-22895529#1"/>
    <trip id="bus140" type="bus_bus" depart="214.76" departLane="best" from="-74505096#0" to="80497987#0"/>
    <trip id="bus141" type="bus_bus" depart="216.29" departLane="best" departSpeed="max" from="70794473" to="74887224#2"/>
    <trip id="bus142" type="bus_bus" depart="217.82" departLane="best" from="80202471#0" to="48566147#7"/>
    <trip id="bus143" type="bus_bus" depart="219.36" departLane="best" from="660905317#1" to="-21812218#2"/>
    <trip id="bus144" type="bus_bus" depart="220.89" departLane="best" from="660949185#2" to="79569495"/>
    <trip id="bus145" type="bus_bus" depart="222.43" departLane="best" from="-952223961" to="-263478933#4"/>
    <trip id="bus146" type="bus_bus" depart="223.96" departLane="best" from="-288956576#1" to="-288956576#1"/>
    <trip id="bus147" type="bus_bus" depart="225.49" departLane="best" from="74892376#2" to="-902042531#1"/>
    <trip id="bus148" type="bus_bus" depart="227.03" departLane="best" from="-14643196#1" to="538779676#0"/>
    <trip id="bus149" type="bus_bus" depart="228.56" departLane="best" departSpeed="max" from="-79569495" to="-79569495"/>
    <trip id="bus150" type="bus_bus" depart="230.10" departLane="best" from="70935303#4" to="74904004#3"/>
    <trip id="bus151" type="bus_bus" depart="231.63" departLane="best" from="71290790#2" to="-70794467#3"/>
    <trip id="bus152" type="bus_bus" depart="233.16" departLane="best" from="696987744" to="22056977#4"/>
    <trip id="bus153" type="bus_bus" depart="234.70" departLane="best" from="-75901677#0" to="74523668#1"/>
    <trip id="bus154" type="bus_bus" depart="236.23" departLane="best" from="-539264384#1" to="71961792#0"/>
    <trip id="bus155" type="bus_bus" depart="237.77" departLane="best" departSpeed="max" from="14645791" to="-74212361#0"/>
    <trip id="bus156" type="bus_bus" depart="239.30" departLane="best" from="70794470" to="533327242#6"/>
    <trip id="bus157" type="bus_bus" depart="240.83" departLane="best" from="-136388780#2" to="47008155#4"/>
    <trip id="bus158" type="bus_bus" depart="242.37" departLane="best" from="78363498#2" to="74904004#4"/>
    <trip id="bus159" type="bus_bus" depart="243.90" departLane="best" from="880204314" to="71205596#2"/>
    <trip id="bus160" type="bus_bus" depart="245.43" departLane="best" from="289286693#3" to="-87645829#3"/>
    <trip id="bus161" type="bus_bus" depart="246.97" departLane="best" from="20606827#1" to="20606827#1"/>
    <trip id="bus162" type="bus_bus" depart="248.50" departLane="best" from="-22057038#0" to="-22057038#0"/>
    <trip id="bus163" type="bus_bus" depart="250.04" departLane="best" from="884896938#1" to="-393260103#1"/>
    <trip id="bus164" type="bus_bus" depart="251.57" departLane="best" from="876088073#0" to="-70794463#0"/>
    <trip id="bus165" type="bus_bus" depart="253.10" departLane="best" from="22057016#3" to="1096044887#0"/>
    <trip id="bus166" type="bus_bus" depart="254.64" departLane="best" from="533171262#1" to="-74310486#1"/>
    <trip id="bus167" type="bus_bus" depart="256.17" departLane="best" from="-243167818#2" to="196637993#1"/>
    <trip id="bus168" type="bus_bus" depart="257.71" departLane="best" from="22338490#2" to="22338490#2"/>
    <trip id="bus169" type="bus_bus" depart="259.24" departLane="best" from="-70418324#1" to="5007529"/>
    <trip id="bus170" type="bus_bus" depart="260.77" departLane="best" departSpeed="max" from="-1022381296" to="81591064"/>
    <trip id="bus171" type="bus_bus" depart="262.31" departLane="best" from="-20608178#1" to="532947863#3"/>
    <trip id="bus172" type="bus_bus" depart="263.84" departLane="best" from="538773530#2" to="476738396"/>
    <trip id="bus173" type="bus_bus" depart="265.38" departLane="best" departSpeed="max" from="-81585365" to="-191917865#0"/>
    <trip id="bus174" type="bus_bus" depart="266.91" departLane="best" from="41601199#0" to="76279001#3"/>
    <trip id="bus175" type="bus_bus" depart="268.44" departLane="best" from="-74523668#8" to="-74226229#0"/>
    <trip id="bus176" type="bus_bus" depart="269.98" departLane="best" from="5008831#5" to="-73914069#3"/>
    <trip id="bus177" type="bus_bus" depart="271.51" departLane="best" departSpeed="max" from="-74505105#1" to="902041371#0"/>
    <trip id="bus178" type="bus_bus" depart="273.05" departLane="best" from="-906584131#1" to="-72713077#3"/>
    <trip id="bus179" type="bus_bus" depart="274.58" departLane="best" from="-22981219#2" to="-101246874"/>
    <trip id="bus180" type="bus_bus" depart="276.11" departLane="best" from="47707315#2" to="47707315#2"/>
    <trip id="bus181" type="bus_bus" depart="277.65" departLane="best" from="802554898#4" to="262192744#0"/>
    <trip id="bus182" type="bus_bus" depart="279.18" departLane="best" from="-74212380#1" to="20614586#8"/>
    <trip id="bus183" type="bus_bus" depart="280.72" departLane="best" from="-1006729252#0" to="-71961798#5"/>
    <trip id="bus184" type="bus_bus" depart="282.25" departLane="best" from="1094325894" to="22762630#10"/>
    <trip id="bus185" type="bus_bus" depart="283.78" departLane="best" from="372154871#1" to="162561557"/>
    <trip id="bus186" type="bus_bus" depart="285.32" departLane="best" from="112951827#0" to="-48566418#0"/>
    <trip id="bus187" type="bus_bus" depart="286.85" departLane="best" from="-16286780#2" to="80588246#6"/>
    <trip id="bus188" type="bus_bus" depart="288.39" departLane="best" departSpeed="max" from="70794473" to="-304002314#0"/>
    <trip id="bus189" type="bus_bus" depart="289.92" departLane="best" from="-20611645#1" to="197335659#5"/>
    <trip id="bus190" type="bus_bus" depart="291.45" departLane="best" from="-71961790#2" to="575288085#0"/>
    <trip id="bus191" type="bus_bus" depart="292.99" departLane="best" from="-437758408" to="-50655178#6"/>
    <trip id="bus192" type="bus_bus" depart="294.52" departLane="best" from="-48566227#1" to="-114195071#2"/>
    <trip id="bus193" type="bus_bus" depart="296.06" departLane="best" from="74220903#0" to="-196637993#7"/>
    <trip id="bus194" type="bus_bus" depart="297.59" departLane="best" from="96876147#2" to="270479436#0"/>
    <trip id="bus195" type="bus_bus" depart="299.12" departLane="best" from="-48466947#17" to="-48466947#17"/>
    <trip id="bus196" type="bus_bus" depart="300.66" departLane="best" from="-60644115#4" to="-60644115#4"/>
    <trip id="bus197" type="bus_bus" depart="302.19" departLane="best" from="384169138#1" to="384169138#1"/>
    <trip id="bus198" type="bus_bus" depart="303.73" departLane="best" from="542424891#3" to="651936761"/>
    <trip id="bus199" type="bus_bus" depart="305.26" departLane="best" from="-437758408" to="876088073#0"/>
    <trip id="bus200" type="bus_bus" depart="306.79" departLane="best" from="197335659#4" to="197335659#4"/>
    <trip id="bus201" type="bus_bus" depart="308.33" departLane="best" from="-660905300#4" to="74310473"/>
    <trip id="bus202" type="bus_bus" depart="309.86" departLane="best" from="136388780#1" to="71082577#0"/>
    <trip id="bus203" type="bus_bus" depart="311.40" departLane="best" from="41601209#9" to="94401734#2"/>
    <trip id="bus204" type="bus_bus" depart="312.93" departLane="best" from="23054006#2" to="856478940#0"/>
    <trip id="bus205" type="bus_bus" depart="314.46" departLane="best" from="72713072#10" to="20614586#7"/>
    <trip id="bus206" type="bus_bus" depart="316.00" departLane="best" departSpeed="max" from="80201731" to="80201731"/>
    <trip id="bus207" type="bus_bus" depart="317.53" departLane="best" from="16286783" to="-694507338#0"/>
    <trip id="bus208" type="bus_bus" depart="319.07" departLane="best" from="629177224#3" to="197347297#1"/>
    <trip id="bus209" type="bus_bus" depart="320.60" departLane="best" from="265397452#1" to="-70935305#0"/>
    <trip id="bus210" type="bus_bus" depart="322.13" departLane="best" from="-199292127#1" to="-71961796#1"/>
    <trip id="bus211" type="bus_bus" depart="323.67" departLane="best" from="-71223025" to="-74523668#8"/>
    <trip id="bus212" type="bus_bus" depart="325.20" departLane="best" from="20608183#5" to="-243133902#0"/>
    <trip id="bus213" type="bus_bus" depart="326.74" departLane="best" from="56181610#0" to="-48566360#4"/>
    <trip id="bus214" type="bus_bus" depart="328.27" departLane="best" from="493890020" to="-191171901#2"/>
    <trip id="bus216" type="bus_bus" depart="331.34" departLane="best" from="101246874" to="48466947#18"/>
    <trip id="bus217" type="bus_bus" depart="332.87" departLane="best" from="-1031656705#1" to="80602904#2"/>
    <trip id="bus218" type="bus_bus" depart="334.41" departLane="best" from="-22762631#5" to="-48566416#1"/>
    <trip id="bus219" type="bus_bus" depart="335.94" departLane="best" from="74505096#1" to="630306073#6"/>
    <trip id="bus220" type="bus_bus" depart="337.47" departLane="best" from="82640609#3" to="1031689106"/>
    <trip id="bus221" type="bus_bus" depart="339.01" departLane="best" from="80624538#1" to="-384173115#0"/>
    <trip id="bus222" type="bus_bus" depart="340.54" departLane="best" from="74310485#11" to="87416837#1"/>
    <trip id="bus223" type="bus_bus" depart="342.07" departLane="best" from="1031656698#0" to="56181610#0"/>
    <trip id="bus224" type="bus_bus" depart="343.61" departLane="best" from="20614573#3" to="243165764#1"/>
    <trip id="bus225" type="bus_bus" depart="345.14" departLane="best" from="-538063665#2" to="-4997046#2"/>
    <trip id="bus226" type="bus_bus" depart="346.68" departLane="best" from="-80201122#1" to="-477905606#17"/>
    <trip id="bus227" type="bus_bus" depart="348.21" departLane="best" from="-926664561#2" to="270483375#0"/>
    <trip id="bus228" type="bus_bus" depart="349.74" departLane="best" from="161650652#0" to="22895529#2"/>
    <trip id="bus229" type="bus_bus" depart="351.28" departLane="best" from="263478255#0" to="132227040#0"/>
    <trip id="bus230" type="bus_bus" depart="352.81" departLane="best" from="-879223007#2" to="22056966#5"/>
    <trip id="bus231" type="bus_bus" depart="354.35" departLane="best" from="-14645796#3" to="372154870#0"/>
    <trip id="bus232" type="bus_bus" depart="355.88" departLane="best" from="-243133902#7" to="147521173#1"/>
    <trip id="bus233" type="bus_bus" depart="357.41" departLane="best" from="-178348838#1" to="81637718#3"/>
    <trip id="bus234" type="bus_bus" depart="358.95" departLane="best" from="-5008830" to="-75901677#17"/>
    <trip id="bus235" type="bus_bus" depart="360.48" departLane="best" from="622787789#3" to="81637718#3"/>
    <trip id="bus236" type="bus_bus" depart="362.02" departLane="best" from="-542888742#10" to="73850665#1"/>
    <trip id="bus237" type="bus_bus" depart="363.55" departLane="best" from="701341634" to="-199292121"/>
    <trip id="bus238" type="bus_bus" depart="365.08" departLane="best" from="-114194006" to="20608185#2"/>
    <trip id="bus239" type="bus_bus" depart="366.62" departLane="best" from="987936181#0" to="-80203006#8"/>
    <trip id="bus240" type="bus_bus" depart="368.15" departLane="best" from="354892172#2" to="696688171#4"/>
    <trip id="bus241" type="bus_bus" depart="369.69" departLane="best" departSpeed="max" from="622632054#0" to="622632054#0"/>
    <trip id="bus242" type="bus_bus" depart="371.22" departLane="best" from="82677622#3" to="-477905082"/>
    <trip id="bus243" type="bus_bus" depart="372.75" departLane="best" from="-114197671#1" to="-263478933#4"/>
    <trip id="bus244" type="bus_bus" depart="374.29" departLane="best" from="229209071#0" to="47008155#6"/>
    <trip id="bus245" type="bus_bus" depart="375.82" departLane="best" from="21876229#0" to="-49697614#2"/>
    <trip id="bus246" type="bus_bus" depart="377.36" departLane="best" from="-48566227#1" to="646488028#4"/>
    <trip id="bus247" type="bus_bus" depart="378.89" departLane="best" from="-41601194#2" to="243180695#2"/>
    <trip id="bus248" type="bus_bus" depart="380.42" departLane="best" from="541166235#0" to="22057024#1"/>
    <trip id="bus249" type="bus_bus" depart="381.96" departLane="best" from="71961796#0" to="880238925#0"/>
    <trip id="bus250" type="bus_bus" depart="383.49" departLane="best" from="-22057016#0" to="-1143856310#1"/>
    <trip id="bus251" type="bus_bus" depart="385.03" departLane="best" from="74523667#2" to="47707315#3"/>
    <trip id="bus252" type="bus_bus" depart="386.56" departLane="best" from="5008626" to="197336403#2"/>
    <trip id="bus253" type="bus_bus" depart="388.09" departLane="best" from="48290275" to="265803951#1"/>
    <trip id="bus254" type="bus_bus" depart="389.63" departLane="best" from="-22056966#2" to="653919967#3"/>
    <trip id="bus255" type="bus_bus" depart="391.16" departLane="best" from="-22812515#1" to="926668983#0"/>
    <trip id="bus256" type="bus_bus" depart="392.70" departLane="best" departSpeed="max" from="694507338#0" to="-80201731"/>
    <trip id="bus257" type="bus_bus" depart="394.23" departLane="best" from="1090593962" to="-81528827"/>
    <trip id="bus258" type="bus_bus" depart="395.76" departLane="best" from="-191172140#1" to="-79629212#2"/>
    <trip id="bus259" type="bus_bus" depart="397.30" departLane="best" from="74220902" to="72051041#4"/>